<?xml version="1.0" encoding="UTF-8"?>

<!-- generated on 2023-11-11 16:25:58 by Eclipse SUMO netedit Version 1.18.0
<configuration xmlns:xsi="http://www.w3.org/2001/XMLSchema-instance" xsi:noNamespaceSchemaLocation="http://sumo.dlr.de/xsd/neteditConfiguration.xsd">

    <input>
        <sumo-net-file value="D:\Scripts\SUMO\generate_routes\net\Town03_C.net.xml"/>
    </input>

    <output>
        <output-file value="D:\Scripts\SUMO\generate_routes\net\Town03_C.net.xml"/>
    </output>

    <processing>
        <geometry.min-radius.fix.railways value="false"/>
        <geometry.max-grade.fix value="false"/>
        <offset.disable-normalization value="true"/>
        <lefthand value="0"/>
    </processing>

    <junctions>
        <no-internal-links value="false"/>
        <no-turnarounds value="true"/>
        <junctions.corner-detail value="5"/>
        <junctions.limit-turn-speed value="5.50"/>
        <rectangular-lane-cut value="1"/>
    </junctions>

    <pedestrian>
        <walkingareas value="0"/>
    </pedestrian>

</configuration>
-->

<net version="1.16" junctionCornerDetail="5" rectangularLaneCut="true" limitTurnSpeed="5.50" xmlns:xsi="http://www.w3.org/2001/XMLSchema-instance" xsi:noNamespaceSchemaLocation="http://sumo.dlr.de/xsd/net_file.xsd">

    <location netOffset="286.97,269.44" convBoundary="0.00,0.00,597.84,582.58" origBoundary="0.000000,0.000000,0.000000,0.000000" projParameter="+proj=tmerc +lat_0=0 +lon_0=0 +k=1 +x_0=0 +y_0=0 +datum=WGS84 +units=m  +vunits=m +no_defs "/>

    <edge id=":1019_0" function="internal">
        <lane id=":1019_0_0" index="0" allow="pedestrian" speed="2.78" length="22.65" width="2.00" shape="300.65,90.20 300.50,112.89">
            <param key="origId" value="1030_9"/>
        </lane>
        <lane id=":1019_0_1" index="1" allow="pedestrian" speed="2.78" length="22.65" width="2.00" shape="298.65,90.20 298.50,112.88">
            <param key="origId" value="1030_8"/>
        </lane>
        <lane id=":1019_0_2" index="2" disallow="all" speed="1.39" length="22.65" width="0.63" shape="297.34,90.20 297.18,112.88">
            <param key="origId" value="1030_7"/>
        </lane>
        <lane id=":1019_0_3" index="3" disallow="all" speed="1.39" length="22.65" width="2.50" shape="295.77,90.20 295.62,112.87">
            <param key="origId" value="1030_6"/>
        </lane>
        <lane id=":1019_0_4" index="4" disallow="pedestrian tram rail_urban rail rail_electric rail_fast ship" speed="13.89" length="22.65" width="3.50" shape="292.77,90.20 292.62,112.85">
            <param key="origId" value="1030_5"/>
        </lane>
        <lane id=":1019_0_5" index="5" disallow="pedestrian tram rail_urban rail rail_electric rail_fast ship" speed="13.89" length="22.65" width="3.50" shape="289.27,90.20 289.12,112.83">
            <param key="origId" value="1030_4"/>
        </lane>
        <lane id=":1019_0_6" index="6" disallow="all" speed="1.39" length="22.65" width="0.50" shape="287.27,90.20 287.12,112.82">
            <param key="origId" value="1030_3"/>
        </lane>
        <lane id=":1019_0_7" index="7" disallow="all" speed="1.39" length="22.65" width="3.50" shape="285.27,90.20 285.12,112.81">
            <param key="origId" value="1030_2"/>
        </lane>
        <lane id=":1019_0_8" index="8" disallow="all" speed="1.39" length="22.65" width="0.50" shape="283.27,90.20 283.12,112.80">
            <param key="origId" value="1030_1"/>
        </lane>
    </edge>
    <edge id=":1019_9" function="internal">
        <lane id=":1019_9_0" index="0" disallow="all" speed="1.39" length="22.56" width="2.50" shape="274.62,112.76 274.77,90.20">
            <param key="origId" value="1031_-3"/>
        </lane>
    </edge>
    <edge id=":1019_10" function="internal">
        <lane id=":1019_10_0" index="0" disallow="pedestrian tram rail_urban rail rail_electric rail_fast ship" speed="11.01" length="4.65" width="3.50" shape="277.62,112.77 276.82,108.19">
            <param key="origId" value="1020_-1"/>
        </lane>
    </edge>
    <edge id=":1019_11" function="internal">
        <lane id=":1019_11_0" index="0" disallow="pedestrian tram rail_urban rail rail_electric rail_fast ship" speed="13.89" length="22.58" width="3.50" shape="277.62,112.77 277.77,90.20">
            <param key="origId" value="1031_-2"/>
        </lane>
        <lane id=":1019_11_1" index="1" disallow="pedestrian tram rail_urban rail rail_electric rail_fast ship" speed="13.89" length="22.58" width="3.50" shape="281.12,112.79 281.27,90.20">
            <param key="origId" value="1031_-1"/>
        </lane>
    </edge>
    <edge id=":1019_13" function="internal">
        <lane id=":1019_13_0" index="0" disallow="pedestrian tram rail_urban rail rail_electric rail_fast ship" speed="11.01" length="16.13" width="3.50" shape="276.82,108.19 274.38,104.27 270.29,101.02 264.56,98.42">
            <param key="origId" value="1020_-1"/>
        </lane>
    </edge>
    <edge id=":1019_c0" function="crossing" crossingEdges="-32 33">
        <lane id=":1019_c0_0" index="0" allow="pedestrian" speed="2.78" length="18.50" width="4.00" shape="276.02,92.20 294.52,92.20"/>
    </edge>
    <edge id=":1019_w0" function="walkingarea">
        <lane id=":1019_w0_0" index="0" allow="pedestrian" speed="2.78" length="16.89" width="4.00" shape="297.50,112.88 299.50,112.89 301.50,112.90 301.65,90.20 299.65,90.20 297.65,90.20 294.52,90.20 294.52,94.20"/>
    </edge>
    <edge id=":1019_w1" function="walkingarea">
        <lane id=":1019_w1_0" index="0" allow="pedestrian" speed="2.78" length="12.77" width="4.00" shape="276.02,90.20 272.89,90.20 270.89,90.20 266.15,93.81 265.50,95.70 267.95,96.32 269.95,96.32 271.51,95.71 272.63,94.48 273.30,92.65"/>
    </edge>
    <edge id=":103_0" function="internal">
        <lane id=":103_0_0" index="0" disallow="pedestrian tram rail_urban rail rail_electric rail_fast ship" speed="10.16" length="19.43" width="3.50" shape="308.17,138.65 301.29,139.42 296.37,141.89 293.39,146.05 293.07,147.91">
            <param key="origId" value="203_1"/>
            <param key="signalID" value="1997"/>
        </lane>
    </edge>
    <edge id=":103_1" function="internal">
        <lane id=":103_1_0" index="0" disallow="pedestrian tram rail_urban rail rail_electric rail_fast ship" speed="13.89" length="40.18" width="3.50" shape="308.17,138.65 267.98,138.54">
            <param key="origId" value="144_1"/>
            <param key="signalID" value="1997"/>
        </lane>
    </edge>
    <edge id=":103_2" function="internal">
        <lane id=":103_2_0" index="0" disallow="pedestrian tram rail_urban rail rail_electric rail_fast ship" speed="12.66" length="32.76" width="3.50" shape="308.17,138.65 296.28,137.40 287.80,133.92 282.74,128.22 281.92,124.29">
            <param key="origId" value="227_1"/>
            <param key="signalID" value="1995"/>
        </lane>
    </edge>
    <edge id=":103_18" function="internal">
        <lane id=":103_18_0" index="0" disallow="pedestrian tram rail_urban rail rail_electric rail_fast ship" speed="10.16" length="4.06" width="3.50" shape="293.07,147.91 292.38,151.91">
            <param key="origId" value="203_1"/>
            <param key="signalID" value="1997"/>
        </lane>
    </edge>
    <edge id=":103_19" function="internal">
        <lane id=":103_19_0" index="0" disallow="pedestrian tram rail_urban rail rail_electric rail_fast ship" speed="12.66" length="4.09" width="3.50" shape="281.92,124.29 281.08,120.28">
            <param key="origId" value="227_1"/>
            <param key="signalID" value="1995"/>
        </lane>
    </edge>
    <edge id=":103_3" function="internal">
        <lane id=":103_3_0" index="0" disallow="all" speed="1.39" length="31.57" width="2.50" shape="295.58,120.36 295.38,151.93">
            <param key="origId" value="183_6"/>
        </lane>
    </edge>
    <edge id=":103_4" function="internal">
        <lane id=":103_4_0" index="0" disallow="pedestrian tram rail_urban rail rail_electric rail_fast ship" speed="10.40" length="20.48" width="3.50" shape="292.58,120.34 293.53,126.76 296.45,131.37 301.34,134.17 304.21,134.58">
            <param key="origId" value="222_1"/>
            <param key="signalID" value="1996"/>
        </lane>
    </edge>
    <edge id=":103_5" function="internal">
        <lane id=":103_5_0" index="0" disallow="pedestrian tram rail_urban rail rail_electric rail_fast ship" speed="13.89" length="31.56" width="3.50" shape="292.58,120.34 292.38,151.91">
            <param key="origId" value="183_5"/>
            <param key="signalID" value="1995"/>
        </lane>
        <lane id=":103_5_1" index="1" disallow="pedestrian tram rail_urban rail rail_electric rail_fast ship" speed="13.89" length="31.56" width="3.50" shape="289.08,120.32 288.88,151.88">
            <param key="origId" value="183_4"/>
            <param key="signalID" value="1995"/>
        </lane>
    </edge>
    <edge id=":103_7" function="internal">
        <lane id=":103_7_0" index="0" disallow="pedestrian tram rail_urban rail rail_electric rail_fast ship" speed="11.71" length="27.83" width="3.50" shape="289.08,120.32 287.72,128.45 283.76,134.20 277.18,137.56 271.99,138.11">
            <param key="origId" value="123_1"/>
        </lane>
    </edge>
    <edge id=":103_8" function="internal">
        <lane id=":103_8_0" index="0" disallow="all" speed="1.39" length="31.56" width="0.50" shape="287.08,120.31 286.88,151.87">
            <param key="origId" value="183_3"/>
        </lane>
        <lane id=":103_8_1" index="1" disallow="all" speed="1.39" length="31.56" width="0.50" shape="283.08,120.29 282.88,151.85">
            <param key="origId" value="183_1"/>
        </lane>
    </edge>
    <edge id=":103_20" function="internal">
        <lane id=":103_20_0" index="0" disallow="pedestrian tram rail_urban rail rail_electric rail_fast ship" speed="10.40" length="4.04" width="3.50" shape="304.21,134.58 308.20,135.15">
            <param key="origId" value="222_1"/>
            <param key="signalID" value="1996"/>
        </lane>
    </edge>
    <edge id=":103_21" function="internal">
        <lane id=":103_21_0" index="0" disallow="pedestrian tram rail_urban rail rail_electric rail_fast ship" speed="11.71" length="4.03" width="3.50" shape="271.99,138.11 267.98,138.54">
            <param key="origId" value="123_1"/>
        </lane>
    </edge>
    <edge id=":103_10" function="internal">
        <lane id=":103_10_0" index="0" disallow="pedestrian tram rail_urban rail rail_electric rail_fast ship" speed="9.33" length="15.80" width="3.50" shape="268.06,135.04 272.19,134.19 275.16,131.44 276.95,126.80 277.20,124.26">
            <param key="origId" value="130_-1"/>
            <param key="signalID" value="1994 1996"/>
        </lane>
    </edge>
    <edge id=":103_11" function="internal">
        <lane id=":103_11_0" index="0" disallow="pedestrian tram rail_urban rail rail_electric rail_fast ship" speed="13.89" length="40.15" width="3.50" shape="268.06,135.04 308.20,135.15">
            <param key="origId" value="139_-1"/>
            <param key="signalID" value="1996"/>
        </lane>
    </edge>
    <edge id=":103_12" function="internal">
        <lane id=":103_12_0" index="0" disallow="pedestrian tram rail_urban rail rail_electric rail_fast ship" speed="11.56" length="26.25" width="3.50" shape="268.06,135.04 277.20,136.25 283.72,139.46 287.61,144.68 288.17,147.88">
            <param key="origId" value="110_-1"/>
            <param key="signalID" value="1996 1997"/>
        </lane>
    </edge>
    <edge id=":103_22" function="internal">
        <lane id=":103_22_0" index="0" disallow="pedestrian tram rail_urban rail rail_electric rail_fast ship" speed="9.33" length="4.02" width="3.50" shape="277.20,124.26 277.58,120.26">
            <param key="origId" value="130_-1"/>
            <param key="signalID" value="1994 1996"/>
        </lane>
    </edge>
    <edge id=":103_23" function="internal">
        <lane id=":103_23_0" index="0" disallow="pedestrian tram rail_urban rail rail_electric rail_fast ship" speed="11.56" length="4.07" width="3.50" shape="288.17,147.88 288.88,151.88">
            <param key="origId" value="110_-1"/>
            <param key="signalID" value="1996 1997"/>
        </lane>
    </edge>
    <edge id=":103_13" function="internal">
        <lane id=":103_13_0" index="0" disallow="all" speed="1.39" length="31.55" width="2.50" shape="274.38,151.79 274.58,120.25">
            <param key="origId" value="184_-3"/>
        </lane>
    </edge>
    <edge id=":103_14" function="internal">
        <lane id=":103_14_0" index="0" disallow="pedestrian tram rail_urban rail rail_electric rail_fast ship" speed="9.10" length="14.27" width="3.50" shape="277.38,151.81 276.82,146.08 275.07,141.95 272.12,139.44 271.97,139.41">
            <param key="origId" value="104_-1"/>
        </lane>
    </edge>
    <edge id=":103_15" function="internal">
        <lane id=":103_15_0" index="0" disallow="pedestrian tram rail_urban rail rail_electric rail_fast ship" speed="13.89" length="31.55" width="3.50" shape="277.38,151.81 277.58,120.26">
            <param key="origId" value="184_-2"/>
            <param key="signalID" value="1994"/>
        </lane>
        <lane id=":103_15_1" index="1" disallow="pedestrian tram rail_urban rail rail_electric rail_fast ship" speed="13.89" length="31.55" width="3.50" shape="280.88,151.83 281.08,120.28">
            <param key="origId" value="184_-1"/>
            <param key="signalID" value="1994"/>
        </lane>
    </edge>
    <edge id=":103_17" function="internal">
        <lane id=":103_17_0" index="0" disallow="pedestrian tram rail_urban rail rail_electric rail_fast ship" speed="12.47" length="31.96" width="3.50" shape="280.88,151.83 282.62,144.43 287.76,139.18 296.29,136.09 304.20,135.47">
            <param key="origId" value="213_-1"/>
            <param key="signalID" value="1994 1995"/>
        </lane>
    </edge>
    <edge id=":103_24" function="internal">
        <lane id=":103_24_0" index="0" disallow="pedestrian tram rail_urban rail rail_electric rail_fast ship" speed="9.10" length="4.08" width="3.50" shape="271.97,139.41 267.98,138.54">
            <param key="origId" value="104_-1"/>
        </lane>
    </edge>
    <edge id=":103_25" function="internal">
        <lane id=":103_25_0" index="0" disallow="pedestrian tram rail_urban rail rail_electric rail_fast ship" speed="12.47" length="4.02" width="3.50" shape="304.20,135.47 308.20,135.15">
            <param key="origId" value="213_-1"/>
            <param key="signalID" value="1994 1995"/>
        </lane>
    </edge>
    <edge id=":103_c0" function="crossing" crossingEdges="-76 76">
        <lane id=":103_c0_0" index="0" allow="pedestrian" speed="2.78" length="14.00" width="4.00" shape="306.26,129.88 306.12,143.88"/>
    </edge>
    <edge id=":103_c1" function="crossing" crossingEdges="-31 31">
        <lane id=":103_c1_0" index="0" allow="pedestrian" speed="2.78" length="18.50" width="4.00" shape="275.82,122.25 294.32,122.35"/>
    </edge>
    <edge id=":103_c2" function="crossing" crossingEdges="24 -24">
        <lane id=":103_c2_0" index="0" allow="pedestrian" speed="2.78" length="14.00" width="4.00" shape="269.88,143.83 270.16,129.83"/>
    </edge>
    <edge id=":103_c3" function="crossing" crossingEdges="30 -30">
        <lane id=":103_c3_0" index="0" allow="pedestrian" speed="2.78" length="18.50" width="4.00" shape="294.14,149.92 275.64,149.80"/>
    </edge>
    <edge id=":103_w0" function="walkingarea">
        <lane id=":103_w0_0" index="0" allow="pedestrian" speed="2.78" length="9.65" width="4.00" shape="294.13,151.92 297.26,151.94 299.26,151.95 301.26,151.96 308.05,150.53 308.07,148.53 308.09,146.53 308.11,144.53 308.12,143.90 304.62,144.09 301.75,144.74 299.52,145.85 297.92,147.42 296.96,149.45"/>
    </edge>
    <edge id=":103_w1" function="walkingarea">
        <lane id=":103_w1_0" index="0" allow="pedestrian" speed="2.78" length="10.09" width="4.00" shape="308.26,129.90 308.26,129.27 308.28,127.27 308.30,125.27 308.32,123.27 301.46,120.39 299.46,120.38 297.46,120.37 294.33,120.35 297.13,123.25 298.08,125.61 299.66,127.46 301.89,128.79 304.75,129.60"/>
    </edge>
    <edge id=":103_w2" function="walkingarea">
        <lane id=":103_w2_0" index="0" allow="pedestrian" speed="2.78" length="7.37" width="4.00" shape="275.83,120.25 272.70,120.24 270.70,120.23 268.23,126.66 268.19,128.66 268.16,129.79 269.74,129.07 271.02,128.33 272.02,127.08 272.74,125.31 273.17,123.03"/>
    </edge>
    <edge id=":103_w3" function="walkingarea">
        <lane id=":103_w3_0" index="0" allow="pedestrian" speed="2.78" length="6.59" width="4.00" shape="267.88,143.79 267.85,144.92 267.81,146.92 270.50,151.77 272.50,151.78 275.63,151.80 272.99,149.52 272.56,147.67 271.83,146.22 270.81,145.17 269.49,144.53"/>
    </edge>
    <edge id=":1038_0" function="internal">
        <lane id=":1038_0_0" index="0" allow="pedestrian" speed="2.78" length="34.70" width="2.00" shape="472.64,221.47 437.94,221.38">
            <param key="origId" value="1050_-6"/>
        </lane>
        <lane id=":1038_0_1" index="1" allow="pedestrian" speed="2.78" length="34.70" width="2.00" shape="472.64,219.47 437.94,219.38">
            <param key="origId" value="1050_-5"/>
        </lane>
        <lane id=":1038_0_2" index="2" allow="pedestrian" speed="2.78" length="34.70" width="2.00" shape="472.64,217.47 437.94,217.38">
            <param key="origId" value="1050_-4"/>
        </lane>
        <lane id=":1038_0_3" index="3" disallow="all" speed="1.39" length="34.70" width="0.63" shape="472.64,216.16 437.94,216.06">
            <param key="origId" value="1050_-3"/>
        </lane>
        <lane id=":1038_0_4" index="4" disallow="pedestrian tram rail_urban rail rail_electric rail_fast ship" speed="13.89" length="34.70" width="3.50" shape="472.64,210.59 437.94,210.50">
            <param key="origId" value="1050_-1"/>
        </lane>
    </edge>
    <edge id=":1038_5" function="internal">
        <lane id=":1038_5_0" index="0" disallow="pedestrian tram rail_urban rail rail_electric rail_fast ship" speed="11.58" length="5.82" width="3.50" shape="472.64,210.59 466.88,209.72,0.03">
            <param key="origId" value="1066_-1"/>
        </lane>
    </edge>
    <edge id=":1038_10" function="internal">
        <lane id=":1038_10_0" index="0" disallow="pedestrian tram rail_urban rail rail_electric rail_fast ship" speed="11.58" length="24.94" width="3.50" shape="466.88,209.72,0.03 464.55,209.36,0.04 458.77,205.68,0.07 455.31,199.53,0.11 454.15,190.93,0.15">
            <param key="origId" value="1066_-1"/>
        </lane>
    </edge>
    <edge id=":1038_6" function="internal">
        <lane id=":1038_6_0" index="0" disallow="pedestrian tram rail_urban rail rail_electric rail_fast ship" speed="10.51" length="25.12" width="3.50" shape="457.65,190.93,0.15 458.59,198.00,0.11 461.40,203.05,0.07 466.08,206.08,0.04 472.64,207.09">
            <param key="origId" value="1059_-1"/>
        </lane>
    </edge>
    <edge id=":1038_7" function="internal">
        <lane id=":1038_7_0" index="0" disallow="pedestrian tram rail_urban rail rail_electric rail_fast ship" speed="11.74" length="31.67" width="3.50" shape="457.65,190.93,0.15 456.42,199.49,0.11 452.72,205.61,0.08 446.56,209.28,0.04 437.94,210.50">
            <param key="origId" value="1070_-1"/>
        </lane>
    </edge>
    <edge id=":1038_8" function="internal">
        <lane id=":1038_8_0" index="0" disallow="pedestrian tram rail_urban rail rail_electric rail_fast ship" speed="10.69" length="26.03" width="3.50" shape="437.94,207.00 445.03,206.00,0.04 450.10,202.98,0.08 453.14,197.96,0.11 454.15,190.93,0.15">
            <param key="origId" value="1073_1"/>
        </lane>
    </edge>
    <edge id=":1038_9" function="internal">
        <lane id=":1038_9_0" index="0" disallow="pedestrian tram rail_urban rail rail_electric rail_fast ship" speed="13.89" length="34.70" width="3.50" shape="437.94,207.00 472.64,207.09">
            <param key="origId" value="1049_1"/>
        </lane>
    </edge>
    <edge id=":1038_c0" function="crossing" crossingEdges="-48 48">
        <lane id=":1038_c0_0" index="0" allow="pedestrian" speed="2.78" length="7.00" width="4.00" shape="439.94,212.25 439.94,205.25"/>
    </edge>
    <edge id=":1038_w0" function="walkingarea">
        <lane id=":1038_w0_0" index="0" allow="pedestrian" speed="2.78" length="26.00" width="4.00" shape="441.94,212.25 437.94,212.25 437.94,216.38 437.94,218.38 437.94,220.38 437.94,222.38 472.64,222.47 472.64,220.47 472.64,218.47 472.64,216.47"/>
    </edge>
    <edge id=":1038_w1" function="walkingarea">
        <lane id=":1038_w1_0" index="0" allow="pedestrian" speed="2.78" length="6.69" width="2.00" shape="472.64,201.21 472.64,199.21 472.64,197.21 472.64,195.21 469.53,190.93,0.15 467.53,190.93,0.15 465.53,190.93,0.15 463.53,190.93,0.15 463.78,194.07,0.12 464.54,196.64,0.09 465.81,198.64,0.07 467.58,200.07,0.05 469.85,200.92,0.03"/>
    </edge>
    <edge id=":1038_w2" function="walkingarea">
        <lane id=":1038_w2_0" index="0" allow="pedestrian" speed="2.78" length="10.50" width="4.00" shape="448.27,190.93,0.15 446.27,190.93,0.15 444.27,190.93,0.15 442.27,190.93,0.15 437.94,195.12 437.94,197.12 437.94,199.12 437.94,201.12 437.94,205.25 441.10,201.45,0.03 443.68,200.55,0.05 445.69,199.05,0.07 447.12,196.94,0.10 447.98,194.24,0.12"/>
    </edge>
    <edge id=":1082_0" function="internal">
        <lane id=":1082_0_0" index="0" disallow="all" speed="1.39" length="25.68" width="0.63" shape="316.54,281.67,-0.01 310.68,282.87,-0.01 305.97,286.09,-0.01 302.38,291.32,-0.00 299.94,298.57">
            <param key="origId" value="1105_5"/>
        </lane>
        <lane id=":1082_0_1" index="1" disallow="all" speed="1.39" length="27.42" width="1.89" shape="316.49,280.33,-0.01 310.20,281.61,-0.01 305.14,285.03,-0.01 301.31,290.59,-0.00 298.71,298.30">
            <param key="origId" value="1105_4"/>
        </lane>
    </edge>
    <edge id=":1082_2" function="internal">
        <lane id=":1082_2_0" index="0" disallow="all" speed="1.39" length="33.12" width="0.50" shape="316.49,280.33,-0.01 307.44,282.70,-0.01 302.02,287.48,-0.00 296.59,292.21,-0.00 287.54,294.48">
            <param key="origId" value="1089_5"/>
        </lane>
    </edge>
    <edge id=":1082_3" function="internal">
        <lane id=":1082_3_0" index="0" disallow="pedestrian tram rail_urban rail rail_electric rail_fast ship" speed="12.90" length="19.82" width="3.50" shape="316.41,277.56,-0.01 309.17,279.00,-0.01 303.37,282.83,-0.01 300.22,287.33,-0.00">
            <param key="origId" value="1105_3"/>
        </lane>
    </edge>
    <edge id=":1082_4" function="internal">
        <lane id=":1082_4_0" index="0" disallow="pedestrian tram rail_urban rail rail_electric rail_fast ship" speed="13.89" length="33.52" width="3.50" shape="316.41,277.56,-0.01 307.32,280.05,-0.01 301.96,285.09,-0.00 296.59,290.09,-0.00 287.50,292.48">
            <param key="origId" value="1089_4"/>
        </lane>
    </edge>
    <edge id=":1082_5" function="internal">
        <lane id=":1082_5_0" index="0" disallow="pedestrian tram rail_urban rail rail_electric rail_fast ship" speed="13.80" length="24.31" width="3.50" shape="316.31,274.06,-0.01 307.83,275.70,-0.01 301.06,280.06,-0.01 296.63,286.26,-0.00">
            <param key="origId" value="1105_2"/>
        </lane>
    </edge>
    <edge id=":1082_6" function="internal">
        <lane id=":1082_6_0" index="0" disallow="pedestrian tram rail_urban rail rail_electric rail_fast ship" speed="13.89" length="33.48" width="3.50" shape="316.31,274.06,-0.01 307.23,276.55,-0.01 301.87,281.59,-0.00 296.51,286.59,-0.00 287.43,288.98">
            <param key="origId" value="1089_3"/>
        </lane>
        <lane id=":1082_6_1" index="1" disallow="all" speed="1.39" length="33.48" width="0.50" shape="316.25,272.06,-0.01 307.17,274.55,-0.01 301.82,279.58,-0.00 296.47,284.58,-0.00 287.39,286.98">
            <param key="origId" value="1089_2"/>
        </lane>
    </edge>
    <edge id=":1082_17" function="internal">
        <lane id=":1082_17_0" index="0" disallow="pedestrian tram rail_urban rail rail_electric rail_fast ship" speed="12.90" length="11.25" width="3.50" shape="300.22,287.33,-0.00 299.00,289.07,-0.00 296.08,297.71">
            <param key="origId" value="1105_3"/>
        </lane>
    </edge>
    <edge id=":1082_18" function="internal">
        <lane id=":1082_18_0" index="0" disallow="pedestrian tram rail_urban rail rail_electric rail_fast ship" speed="13.80" length="11.44" width="3.50" shape="296.63,286.26,-0.00 296.00,287.15,-0.00 292.66,296.95">
            <param key="origId" value="1105_2"/>
        </lane>
    </edge>
    <edge id=":1082_8" function="internal">
        <lane id=":1082_8_0" index="0" disallow="all" speed="1.39" length="32.00" width="1.89" shape="311.91,269.77 310.18,278.70 306.48,284.17 302.18,289.58 298.71,298.30">
            <param key="origId" value="1122_-4"/>
        </lane>
    </edge>
    <edge id=":1082_9" function="internal">
        <lane id=":1082_9_0" index="0" disallow="all" speed="1.39" length="3.31" width="0.50" shape="311.91,269.77 311.38,273.03">
            <param key="origId" value="1100_-6"/>
        </lane>
    </edge>
    <edge id=":1082_10" function="internal">
        <lane id=":1082_10_0" index="0" disallow="pedestrian tram rail_urban rail rail_electric rail_fast ship" speed="13.89" length="31.85" width="3.50" shape="309.91,269.72 308.08,278.54 304.14,283.86 299.63,289.11 296.08,297.71">
            <param key="origId" value="1122_-3"/>
        </lane>
    </edge>
    <edge id=":1082_11" function="internal">
        <lane id=":1082_11_0" index="0" disallow="pedestrian tram rail_urban rail rail_electric rail_fast ship" speed="12.70" length="3.64" width="3.50" shape="309.91,269.72 309.33,273.31">
            <param key="origId" value="1100_-5"/>
        </lane>
    </edge>
    <edge id=":1082_12" function="internal">
        <lane id=":1082_12_0" index="0" disallow="pedestrian tram rail_urban rail rail_electric rail_fast ship" speed="13.89" length="31.22" width="3.50" shape="306.41,269.64 304.58,278.26 300.65,283.43 296.16,288.54 292.66,296.95">
            <param key="origId" value="1122_-2"/>
        </lane>
    </edge>
    <edge id=":1082_13" function="internal">
        <lane id=":1082_13_0" index="0" disallow="pedestrian tram rail_urban rail rail_electric rail_fast ship" speed="11.73" length="5.14" width="3.50" shape="306.41,269.64 305.59,274.72">
            <param key="origId" value="1100_-4"/>
        </lane>
        <lane id=":1082_13_1" index="1" disallow="all" speed="1.39" length="9.08" width="0.50" shape="304.41,269.60 303.20,277.08 302.43,278.36">
            <param key="origId" value="1100_-3"/>
        </lane>
        <lane id=":1082_13_2" index="2" disallow="all" speed="1.39" length="10.62" width="0.63" shape="303.84,269.58 302.68,276.83 300.98,279.64">
            <param key="origId" value="1100_-2"/>
        </lane>
        <lane id=":1082_13_3" index="3" allow="pedestrian" speed="2.78" length="12.82" width="2.00" shape="302.53,269.55 301.45,276.24 298.56,281.07 298.20,281.29">
            <param key="origId" value="1100_-1"/>
        </lane>
    </edge>
    <edge id=":1082_19" function="internal">
        <lane id=":1082_19_0" index="0" disallow="all" speed="1.39" length="35.92" width="0.50" shape="311.38,273.03 310.18,280.41 305.54,288.08 298.00,292.77 287.54,294.48">
            <param key="origId" value="1100_-6"/>
        </lane>
    </edge>
    <edge id=":1082_20" function="internal">
        <lane id=":1082_20_0" index="0" disallow="pedestrian tram rail_urban rail rail_electric rail_fast ship" speed="12.70" length="32.46" width="3.50" shape="309.33,273.31 308.32,279.52 304.06,286.59 297.11,290.90 287.50,292.48">
            <param key="origId" value="1100_-5"/>
        </lane>
    </edge>
    <edge id=":1082_21" function="internal">
        <lane id=":1082_21_0" index="0" disallow="pedestrian tram rail_urban rail rail_electric rail_fast ship" speed="11.73" length="25.48" width="3.50" shape="305.59,274.72 305.06,277.97 301.45,283.97 295.57,287.64 287.43,288.98">
            <param key="origId" value="1100_-4"/>
        </lane>
    </edge>
    <edge id=":1082_22" function="internal">
        <lane id=":1082_22_0" index="0" disallow="all" speed="1.39" length="18.41" width="0.50" shape="302.43,278.36 299.96,282.47 294.69,285.77 287.39,286.98">
            <param key="origId" value="1100_-3"/>
        </lane>
    </edge>
    <edge id=":1082_23" function="internal">
        <lane id=":1082_23_0" index="0" disallow="all" speed="1.39" length="15.98" width="0.63" shape="300.98,279.64 299.54,282.05 294.44,285.24 287.38,286.41">
            <param key="origId" value="1100_-2"/>
        </lane>
    </edge>
    <edge id=":1082_24" function="internal">
        <lane id=":1082_24_0" index="0" allow="pedestrian" speed="2.78" length="11.73" width="2.00" shape="298.20,281.29 293.86,284.02 287.35,285.10">
            <param key="origId" value="1100_-1"/>
        </lane>
    </edge>
    <edge id=":1082_w0" function="walkingarea">
        <lane id=":1082_w0_0" index="0" allow="pedestrian" speed="2.78" length="22.08" width="2.00" shape="300.25,298.63 302.20,299.08 316.60,283.98,-0.01 316.54,281.99,-0.01 312.59,282.55,-0.01 309.13,284.00,-0.01 306.17,286.34,-0.01 303.70,289.56,-0.00 301.73,293.66,-0.00"/>
    </edge>
    <edge id=":1082_w1" function="walkingarea">