<?xml version='1.0' encoding='UTF-8'?>
<!--generated on 2023-11-10 15:44:40 by create_sumo_vtypes.py-->
<routes>
  <vType id="vehicle.audi.a2" length="3.705369472503662" width="1.788678526878357" height="1.549050211906433" sigma="0.68" speedDev="0.3" lcStrategic="4.17" lcSpeedGain="4.0" lcKeepRight="1.66" vClass="passenger"/>
  <vType id="vehicle.mercedes.sprinter" length="5.91519021987915" width="1.9884328842163086" height="2.560655355453491" sigma="0.53" speedDev="0.3" lcStrategic="1.86" lcSpeedGain="1.58" lcKeepRight="3.08" vClass="passenger"/>
  <vType id="vehicle.chevrolet.impala" length="5.357479572296143" width="2.033202886581421" height="1.4106587171554565" sigma="0.61" speedDev="0.3" lcStrategic="4.92" lcSpeedGain="2.84" lcKeepRight="3.18" vClass="passenger"/>
  <vType id="vehicle.citroen.c3" length="3.987684965133667" width="1.8508483171463013" height="1.6171095371246338" sigma="0.63" speedDev="0.3" lcStrategic="4.36" lcSpeedGain="4.37" lcKeepRight="2.31" vClass="passenger"/>
  <vType id="vehicle.tesla.model3" length="4.791779518127441" width="2.163450002670288" height="1.488319993019104" sigma="0.43" speedDev="0.3" lcStrategic="3.99" lcSpeedGain="4.8" lcKeepRight="3.98" vClass="evehicle"/>
  <vType id="vehicle.dodge.charger_police_2020" length="5.237514495849609" width="2.097083806991577" height="1.638383150100708" sigma="0.67" speedDev="0.4" lcStrategic="4.84" lcSpeedGain="3.61" lcKeepRight="4.92" minGap="2.55" speedFactor="1.2" jmIgnoreFoeProb="0.15" jmIgnoreFoeSpeed="8.8" impatience="0.27" vClass="authority" guiShape="police"/>
  <vType id="vehicle.micro.microlino" length="2.2072951793670654" width="1.4809197187423706" height="1.3760247230529785" sigma="0.47" speedDev="0.3" lcStrategic="4.41" lcSpeedGain="1.02" lcKeepRight="2.75" vClass="evehicle"/>
  <vType id="vehicle.dodge.charger_police" length="4.974244117736816" width="2.0384011268615723" height="1.5421181917190552" sigma="0.35" speedDev="0.4" lcStrategic="2.52" lcSpeedGain="4.93" lcKeepRight="1.27" minGap="2.6" speedFactor="1.2" jmIgnoreFoeProb="0.24" jmIgnoreFoeSpeed="9.1" impatience="0.18" vClass="authority" guiShape="police"/>
  <vType id="vehicle.mercedes.coupe_2020" length="4.673638820648193" width="2.0022923946380615" height="1.441947340965271" sigma="0.55" speedDev="0.3" lcStrategic="1.4" lcSpeedGain="4.84" lcKeepRight="4.17" vClass="passenger"/>
  <vType id="vehicle.harley-davidson.low_rider" length="2.3557403087615967" width="0.7636788487434387" height="1.2765706777572632" sigma="0.31" speedDev="0.4" lcStrategic="4.77" lcSpeedGain="4.72" lcKeepRight="1.26" minGap="2.69" speedFactor="1.2" jmIgnoreFoeProb="0.11" jmIgnoreFoeSpeed="7.0" impatience="0.36" vClass="motorcycle"/>
  <vType id="vehicle.dodge.charger_2020" length="5.006059646606445" width="2.097083806991577" height="1.5347249507904053" sigma="0.53" speedDev="0.3" lcStrategic="1.06" lcSpeedGain="3.19" lcKeepRight="4.26" vClass="passenger"/>
  <vType id="vehicle.ford.ambulance" length="6.36564302444458" width="2.3511743545532227" height="2.431375741958618" sigma="0.36" speedDev="0.4" lcStrategic="4.21" lcSpeedGain="2.31" lcKeepRight="2.18" minGap="1.63" speedFactor="1.2" jmIgnoreFoeProb="0.06" jmIgnoreFoeSpeed="9.5" impatience="0.21" vClass="emergency" guiShape="passenger/van"/>
  <vType id="vehicle.lincoln.mkz_2020" length="4.89238166809082" width="2.230602979660034" height="1.4801470041275024" sigma="0.49" speedDev="0.3" lcStrategic="1.45" lcSpeedGain="4.59" lcKeepRight="2.35" vClass="passenger"/>
  <vType id="vehicle.mini.cooper_s_2021" length="4.552699089050293" width="2.097072124481201" height="1.7671663761138916" sigma="0.39" speedDev="0.3" lcStrategic="1.42" lcSpeedGain="3.46" lcKeepRight="1.48" vClass="passenger"/>
  <vType id="vehicle.toyota.prius" length="4.513522624969482" width="2.006814479827881" height="1.5248334407806396" sigma="0.31" speedDev="0.3" lcStrategic="3.33" lcSpeedGain="3.35" lcKeepRight="2.74" vClass="evehicle"/>
  <vType id="vehicle.ford.mustang" length="4.717525005340576" width="1.894826889038086" height="1.300939917564392" sigma="0.31" speedDev="0.3" lcStrategic="2.63" lcSpeedGain="3.78" lcKeepRight="4.48" vClass="passenger"/>
  <vType id="vehicle.volkswagen.t2" length="4.4804368019104" width="2.069315195083618" height="2.0377919673919678" sigma="0.58" speedDev="0.3" lcStrategic="2.22" lcSpeedGain="2.21" lcKeepRight="4.15" vClass="passenger" guiShape="passenger/van"/>
  <vType id="vehicle.carlamotors.firetruck" length="8.46804141998291" width="2.8910882472991943" height="3.8274123668670654" sigma="0.46" speedDev="0.4" lcStrategic="2.56" lcSpeedGain="3.7" lcKeepRight="3.85" minGap="2.43" speedFactor="1.2" jmIgnoreFoeProb="0.19" jmIgnoreFoeSpeed="8.9" impatience="0.31" vClass="truck" guiShape="truck"/>
  <vType id="vehicle.carlamotors.carlacola" length="5.203838348388672" width="2.6269896030426025" height="2.467444658279419" sigma="0.6" speedDev="0.4" lcStrategic="3.15" lcSpeedGain="4.64" lcKeepRight="4.35" minGap="2.34" speedFactor="1.2" jmIgnoreFoeProb="0.35" jmIgnoreFoeSpeed="8.6" impatience="0.37" vClass="truck" guiShape="truck"/>
  <vType id="vehicle.vespa.zx125" length="1.8046669960021973" width="0.85568767786026" height="1.235628366470337" sigma="0.51" speedDev="0.4" lcStrategic="3.43" lcSpeedGain="2.66" lcKeepRight="2.8" minGap="2.41" speedFactor="1.2" jmIgnoreFoeProb="0.17" jmIgnoreFoeSpeed="9.5" impatience="0.32" vClass="motorcycle"/>
  <vType id="vehicle.nissan.patrol_2021" length="5.565828800201416" width="2.1499669551849365" height="2.045147180557251" sigma="0.66" speedDev="0.3" lcStrategic="3.09" lcSpeedGain="1.32" lcKeepRight="2.44" vClass="passenger"/>
  <vType id="vehicle.lincoln.mkz_2017" length="4.901683330535889" width="2.128324270248413" height="1.5107464790344238" sigma="0.31" speedDev="0.3" lcStrategic="4.17" lcSpeedGain="3.51" lcKeepRight="1.02" vClass="passenger"/>
  <vType id="vehicle.tesla.cybertruck" length="6.273552894592285" width="2.3895740509033203" height="2.098191261291504" sigma="0.38" speedDev="0.3" lcStrategic="4.56" lcSpeedGain="4.14" lcKeepRight="1.73" vClass="evehicle"/>
  <vType id="vehicle.audi.etron" length="4.855708599090576" width="2.0327565670013428" height="1.6493593454360962" sigma="0.33" speedDev="0.3" lcStrategic="2.11" lcSpeedGain="3.96" lcKeepRight="3.81" vClass="evehicle"/>
  <vType id="vehicle.seat.leon" length="4.1928300857543945" width="1.8161858320236206" height="1.4738311767578125" sigma="0.41" speedDev="0.3" lcStrategic="2.62" lcSpeedGain="1.14" lcKeepRight="3.19" vClass="passenger"/>
  <vType id="vehicle.diamondback.century" length="1.6428436040878296" width="0.3725162446498871" height="1.1959625482559204" sigma="0.49" speedDev="0.4" lcStrategic="1.18" lcSpeedGain="1.07" lcKeepRight="4.09" minGap="1.5" speedFactor="1.2" jmDriveAfterRedTime="2.34" jmIgnoreFoeProb="0.21" jmIgnoreFoeSpeed="9.9" impatience="0.24" vClass="bicycle"/>
  <vType id="vehicle.gazelle.omafiets" length="1.8354405164718628" width="0.3289288878440857" height="1.1713745594024658" sigma="0.32" speedDev="0.4" lcStrategic="1.31" lcSpeedGain="4.5" lcKeepRight="1.3" minGap="1.5" speedFactor="1.2" jmDriveAfterRedTime="2.27" jmIgnoreFoeProb="0.28" jmIgnoreFoeSpeed="8.6" impatience="0.12" vClass="bicycle"/>
  <vType id="vehicle.bmw.grandtourer" length="4.611005783081055" width="2.241713285446167" height="1.6672759056091309" sigma="0.31" speedDev="0.3" lcStrategic="2.89" lcSpeedGain="1.78" lcKeepRight="3.82" vClass="passenger"/>
  <vType id="vehicle.bh.crossbike" length="1.4872888326644897" width="0.8592574596405029" height="1.0795789957046509" sigma="0.68" speedDev="0.4" lcStrategic="4.13" lcSpeedGain="4.39" lcKeepRight="4.23" minGap="1.5" speedFactor="1.2" jmDriveAfterRedTime="2.99" jmIgnoreFoeProb="0.22" jmIgnoreFoeSpeed="9.2" impatience="0.38" vClass="bicycle"/>
  <vType id="vehicle.kawasaki.ninja" length="2.0333523750305176" width="0.8025798797607422" height="1.1454535722732544" sigma="0.67" speedDev="0.4" lcStrategic="4.02" lcSpeedGain="4.07" lcKeepRight="3.88" minGap="1.92" speedFactor="1.2" jmIgnoreFoeProb="0.33" jmIgnoreFoeSpeed="9.8" impatience="0.18" vClass="motorcycle"/>
  <vType id="vehicle.yamaha.yzf" length="2.2094459533691406" width="0.8670341968536377" height="1.2511454820632935" sigma="0.53" speedDev="0.4" lcStrategic="1.64" lcSpeedGain="3.04" lcKeepRight="4.26" minGap="2.49" speedFactor="1.2" jmIgnoreFoeProb="0.20" jmIgnoreFoeSpeed="8.3" impatience="0.31" vClass="motorcycle"/>
  <vType id="vehicle.audi.tt" length="4.181210041046143" width="1.9941171407699585" height="1.385296106338501" sigma="0.6" speedDev="0.3" lcStrategic="2.36" lcSpeedGain="3.49" lcKeepRight="2.53" vClass="passenger"/>
  <vType id="vehicle.jeep.wrangler_rubicon" length="3.866220712661743" width="1.9051965475082397" height="1.8779358863830566" sigma="0.67" speedDev="0.3" lcStrategic="2.38" lcSpeedGain="3.26" lcKeepRight="1.32" vClass="passenger"/>
  <vType id="vehicle.nissan.patrol" length="4.6045098304748535" width="1.9315929412841797" height="1.8548461198806763" sigma="0.35" speedDev="0.3" lcStrategic="3.34" lcSpeedGain="2.47" lcKeepRight="3.96" vClass="passenger"/>
  <vType id="vehicle.nissan.micra" length="3.633375883102417" width="1.845113754272461" height="1.5012825727462769" sigma="0.56" speedDev="0.3" lcStrategic="4.27" lcSpeedGain="2.35" lcKeepRight="4.19" vClass="passenger"/>
  <vType id="vehicle.mini.cooper_s" length="3.805800199508667" width="1.97027587890625" height="1.4750303030014038" sigma="0.69" speedDev="0.3" lcStrategic="3.72" lcSpeedGain="4.62" lcKeepRight="3.52" vClass="passenger"/>
  <vType id="vehicle.mercedes.coupe" length="5.0267767906188965" width="2.1515462398529053" height="1.6506516933441162" sigma="0.5" speedDev="0.3" lcStrategic="4.45" lcSpeedGain="4.37" lcKeepRight="4.01" vClass="passenger"/>
  <vType id="walker.pedestrian.0021" length="0.3753577768802643" width="0.3753577768802643" height="1.8600000143051147" minGap="1.5" speedFactor="1.2" speedDev="0.5" jmDriveAfterRedTime="0.38" jmIgnoreFoeProb="0.37" jmIgnoreFoeSpeed="8.51" impatience="0.05" vClass="pedestrian"/>
  <vType id="walker.pedestrian.0002" length="0.3753577768802643" width="0.3753577768802643" height="1.8600000143051147" minGap="1.5" speedFactor="1.2" speedDev="0.5" jmDriveAfterRedTime="0.07" jmIgnoreFoeProb="0.34" jmIgnoreFoeSpeed="8.24" impatience="0.22" vClass="pedestrian"/>
  <vType id="walker.pedestrian.0040" length="0.3753577768802643" width="0.3753577768802643" height="1.8600000143051147" minGap="1.5" speedFactor="1.2" speedDev="0.5" jmDriveAfterRedTime="0.32" jmIgnoreFoeProb="0.05" jmIgnoreFoeSpeed="7.45" impatience="0.24" vClass="pedestrian"/>
  <vType id="walker.pedestrian.0010" length="0.5" width="0.5" height="1.100000023841858" minGap="1.5" speedFactor="1.2" speedDev="0.5" jmDriveAfterRedTime="1.42" jmIgnoreFoeProb="0.13" jmIgnoreFoeSpeed="8.27" impatience="0.27" vClass="pedestrian"/>
  <vType id="walker.pedestrian.0029" length="0.3753577768802643" width="0.3753577768802643" height="1.8600000143051147" minGap="1.5" speedFactor="1.2" speedDev="0.5" jmDriveAfterRedTime="2.54" jmIgnoreFoeProb="0.16" jmIgnoreFoeSpeed="6.79" impatience="0.03" vClass="pedestrian"/>
  <vType id="walker.pedestrian.0015" length="0.3753577768802643" width="0.3753577768802643" height="1.8600000143051147" minGap="1.5" speedFactor="1.2" speedDev="0.5" jmDriveAfterRedTime="2.78" jmIgnoreFoeProb="0.4" jmIgnoreFoeSpeed="7.52" impatience="0.2" vClass="pedestrian"/>
  <vType id="walker.pedestrian.0007" length="0.3753577768802643" width="0.3753577768802643" height="1.8600000143051147" minGap="1.5" speedFactor="1.2" speedDev="0.5" jmDriveAfterRedTime="0.42" jmIgnoreFoeProb="0.02" jmIgnoreFoeSpeed="5.27" impatience="0.06" vClass="pedestrian"/>
  <vType id="walker.pedestrian.0036" length="0.3753577768802643" width="0.3753577768802643" height="1.8600000143051147" minGap="1.5" speedFactor="1.2" speedDev="0.5" jmDriveAfterRedTime="2.88" jmIgnoreFoeProb="0.44" jmIgnoreFoeSpeed="5.69" impatience="0.32" vClass="pedestrian"/>
  <vType id="walker.pedestrian.0001" length="0.3753577768802643" width="0.3753577768802643" height="1.8600000143051147" minGap="1.5" speedFactor="1.2" speedDev="0.5" jmDriveAfterRedTime="2.49" jmIgnoreFoeProb="0.06" jmIgnoreFoeSpeed="8.61" impatience="0.21" vClass="pedestrian"/>
  <vType id="walker.pedestrian.0030" length="0.3753577768802643" width="0.3753577768802643" height="1.8600000143051147" minGap="1.5" speedFactor="1.2" speedDev="0.5" jmDriveAfterRedTime="2.34" jmIgnoreFoeProb="0.28" jmIgnoreFoeSpeed="7.36" impatience="0.24" vClass="pedestrian"/>
</routes>
