<?xml version="1.0" encoding="UTF-8"?>
<configuration xmlns:xsi="http://www.w3.org/2001/XMLSchema-instance" xsi:noNamespaceSchemaLocation="http://sumo.dlr.de/xsd/sumoConfiguration.xsd">

    <input>
        <net-file value="net/Town04_C.net.xml"/>
        <route-files value="carlavtypes.rou.xml,rou/Town04_veh.rou.xml,rou/Town04_ped.rou.xml"/>
    </input>

    <gui_only>
        <gui-settings-file value="viewsettings.xml"/>
    </gui_only>

</configuration>
