<?xml version='1.0' encoding='UTF-8'?>
<!-- generated on 2023-11-08 00:25:05.100353 by randomTrips.py UNKNOWN
<configuration>
    <net-file value="/home/lrs/scripts/V2X-TSG/data_collection/data/net/Town04_C.net.xml"/>
    <output-trip-file value="/home/lrs/scripts/V2X-TSG/data_collection/data/rou/Town04_ped.rou.xml"/>
    <pedestrians value="True"/>
    <persontrip.walk-opposite-factor value="0.8"/>
    <prefix value="ped"/>
    <seed value="43"/>
    <min-distance value="200.0"/>
    <max-distance value="700.0"/>
    <validate value="True"/>
    <end value="30.0"/>
    <period value="0.2"/>
</configuration>
-->
<!-- generated on 2023-11-08 00:25:05 by Eclipse SUMO duarouter Version 1.18.0
<configuration xmlns:xsi="http://www.w3.org/2001/XMLSchema-instance" xsi:noNamespaceSchemaLocation="http://sumo.dlr.de/xsd/duarouterConfiguration.xsd">

    <input>
        <net-file value="/home/lrs/scripts/V2X-TSG/data_collection/data/net/Town04_C.net.xml"/>
        <route-files value="/home/lrs/scripts/V2X-TSG/data_collection/data/rou/Town04_ped.rou.xml"/>
    </input>

    <output>
        <output-file value="/home/lrs/scripts/V2X-TSG/data_collection/data/rou/Town04_ped.rou.xml.tmp"/>
        <alternatives-output value="NUL"/>
        <write-trips value="true"/>
    </output>

    <processing>
        <persontrip.walk-opposite-factor value="0.8"/>
    </processing>

    <time>
        <begin value="0.0"/>
        <end value="30.0"/>
    </time>

    <report>
        <no-warnings value="true"/>
        <ignore-errors value="true"/>
        <no-step-log value="true"/>
    </report>

</configuration>
-->
<routes xmlns:xsi="http://www.w3.org/2001/XMLSchema-instance" xsi:noNamespaceSchemaLocation="http://sumo.dlr.de/xsd/routes_file.xsd">
    <person id="ped0" depart="0.00" type="walker.pedestrian.0001">
        <personTrip from="52.0.00" to="12.0.00" walkFactor="0.75"/>
    </person>
    <person id="ped1" depart="0.20" type="walker.pedestrian.0002">
        <personTrip from="-0.0.00" to="4.0.00" walkFactor="0.75"/>
    </person>
    <person id="ped2" depart="0.40" type="walker.pedestrian.0007">
        <personTrip from="-2.0.00" to="51.0.00" walkFactor="0.75"/>
    </person>
    <person id="ped3" depart="0.60" type="walker.pedestrian.0010">
        <personTrip from="52.0.00" to="21.0.00" walkFactor="0.75"/>
    </person>
    <person id="ped4" depart="0.80" type="walker.pedestrian.0015">
        <personTrip from="-2.0.00" to="51.0.00" walkFactor="0.75"/>
    </person>
    <person id="ped5" depart="1.00" type="walker.pedestrian.0021">
        <personTrip from="4.0.00" to="51.0.00" walkFactor="0.75"/>
    </person>
    <person id="ped6" depart="1.20" type="walker.pedestrian.0029">
        <personTrip from="51.0.00" to="29.0.00" walkFactor="0.75"/>
    </person>
    <person id="ped7" depart="1.40" type="walker.pedestrian.0030">
        <personTrip from="51.0.00" to="11.0.00" walkFactor="0.75"/>
    </person>
    <person id="ped8" depart="1.60" type="walker.pedestrian.0036">
        <personTrip from="30.0.00" to="51.0.00" walkFactor="0.75"/>
    </person>
    <person id="ped9" depart="1.80" type="walker.pedestrian.0040">
        <personTrip from="51.0.00" to="21.0.00" walkFactor="0.75"/>
    </person>
    <person id="ped10" depart="2.00" type="walker.pedestrian.0001">
        <personTrip from="52.0.00" to="-13.0.00" walkFactor="0.75"/>
    </person>
    <person id="ped11" depart="2.20" type="walker.pedestrian.0002">
        <personTrip from="52.0.00" to="21.0.00" walkFactor="0.75"/>
    </person>
    <person id="ped12" depart="2.40" type="walker.pedestrian.0007">
        <personTrip from="-13.0.00" to="52.0.00" walkFactor="0.75"/>
    </person>
    <person id="ped13" depart="2.60" type="walker.pedestrian.0010">
        <personTrip from="51.0.00" to="3.0.00" walkFactor="0.75"/>
    </person>
    <person id="ped14" depart="2.80" type="walker.pedestrian.0015">
        <personTrip from="24.0.00" to="51.0.00" walkFactor="0.75"/>
    </person>
    <person id="ped15" depart="3.00" type="walker.pedestrian.0021">
        <personTrip from="21.0.00" to="52.0.00" walkFactor="0.75"/>
    </person>
    <person id="ped16" depart="3.20" type="walker.pedestrian.0029">
        <personTrip from="51.0.00" to="11.0.00" walkFactor="0.75"/>
    </person>
    <person id="ped17" depart="3.40" type="walker.pedestrian.0030">
        <personTrip from="12.0.00" to="51.0.00" walkFactor="0.75"/>
    </person>
    <person id="ped18" depart="3.60" type="walker.pedestrian.0036">
        <personTrip from="-0.0.00" to="4.0.00" walkFactor="0.75"/>
    </person>
    <person id="ped19" depart="3.80" type="walker.pedestrian.0040">
        <personTrip from="26.0.00" to="51.0.00" walkFactor="0.75"/>
    </person>
    <person id="ped20" depart="4.00" type="walker.pedestrian.0001">
        <personTrip from="-0.0.00" to="4.0.00" walkFactor="0.75"/>
    </person>
    <person id="ped21" depart="4.20" type="walker.pedestrian.0002">
        <personTrip from="51.0.00" to="11.0.00" walkFactor="0.75"/>
    </person>
    <person id="ped22" depart="4.40" type="walker.pedestrian.0007">
        <personTrip from="4.0.00" to="-16.0.00" walkFactor="0.75"/>
    </person>
    <person id="ped23" depart="4.60" type="walker.pedestrian.0010">
        <personTrip from="-1.0.00" to="51.0.00" walkFactor="0.75"/>
    </person>
    <person id="ped24" depart="4.80" type="walker.pedestrian.0015">
        <personTrip from="-13.0.00" to="8.0.00" walkFactor="0.75"/>
    </person>
    <person id="ped25" depart="5.00" type="walker.pedestrian.0021">
        <personTrip from="-30.0.00" to="51.0.00" walkFactor="0.75"/>
    </person>
    <person id="ped26" depart="5.20" type="walker.pedestrian.0029">
        <personTrip from="51.0.00" to="-26.0.00" walkFactor="0.75"/>
    </person>
    <person id="ped27" depart="5.40" type="walker.pedestrian.0030">
        <personTrip from="3.0.00" to="51.0.00" walkFactor="0.75"/>
    </person>
    <person id="ped28" depart="5.60" type="walker.pedestrian.0036">
        <personTrip from="-4.0.00" to="51.0.00" walkFactor="0.75"/>
    </person>
    <person id="ped29" depart="5.80" type="walker.pedestrian.0040">
        <personTrip from="-27.0.00" to="51.0.00" walkFactor="0.75"/>
    </person>
    <person id="ped30" depart="6.00" type="walker.pedestrian.0001">
        <personTrip from="12.0.00" to="8.0.00" walkFactor="0.75"/>
    </person>
    <person id="ped31" depart="6.20" type="walker.pedestrian.0002">
        <personTrip from="12.0.00" to="8.0.00" walkFactor="0.75"/>
    </person>
    <person id="ped32" depart="6.40" type="walker.pedestrian.0007">
        <personTrip from="24.0.00" to="51.0.00" walkFactor="0.75"/>
    </person>
    <person id="ped33" depart="6.60" type="walker.pedestrian.0010">
        <personTrip from="-27.0.00" to="51.0.00" walkFactor="0.75"/>
    </person>
    <person id="ped34" depart="6.80" type="walker.pedestrian.0015">
        <personTrip from="19.0.00" to="-0.0.00" walkFactor="0.75"/>
    </person>
    <person id="ped35" depart="7.00" type="walker.pedestrian.0021">
        <personTrip from="-13.0.00" to="51.0.00" walkFactor="0.75"/>
    </person>
    <person id="ped36" depart="7.20" type="walker.pedestrian.0029">
        <personTrip from="51.0.00" to="-13.0.00" walkFactor="0.75"/>
    </person>
    <person id="ped37" depart="7.40" type="walker.pedestrian.0030">
        <personTrip from="-26.0.00" to="51.0.00" walkFactor="0.75"/>
    </person>
    <person id="ped38" depart="7.60" type="walker.pedestrian.0036">
        <personTrip from="3.0.00" to="51.0.00" walkFactor="0.75"/>
    </person>
    <person id="ped39" depart="7.80" type="walker.pedestrian.0040">
        <personTrip from="-16.0.00" to="24.0.00" walkFactor="0.75"/>
    </person>
    <person id="ped40" depart="8.00" type="walker.pedestrian.0001">
        <personTrip from="26.0.00" to="51.0.00" walkFactor="0.75"/>
    </person>
    <person id="ped41" depart="8.20" type="walker.pedestrian.0002">
        <personTrip from="52.0.00" to="21.0.00" walkFactor="0.75"/>
    </person>
    <person id="ped42" depart="8.40" type="walker.pedestrian.0007">
        <personTrip from="51.0.00" to="-27.0.00" walkFactor="0.75"/>
    </person>
    <person id="ped43" depart="8.60" type="walker.pedestrian.0010">
        <personTrip from="51.0.00" to="19.0.00" walkFactor="0.75"/>
    </person>
    <person id="ped44" depart="8.80" type="walker.pedestrian.0015">
        <personTrip from="51.0.00" to="30.0.00" walkFactor="0.75"/>
    </person>
    <person id="ped45" depart="9.00" type="walker.pedestrian.0021">
        <personTrip from="51.0.00" to="29.0.00" walkFactor="0.75"/>
    </person>
    <person id="ped46" depart="9.20" type="walker.pedestrian.0029">
        <personTrip from="51.0.00" to="18.0.00" walkFactor="0.75"/>
    </person>
    <person id="ped47" depart="9.40" type="walker.pedestrian.0030">
        <personTrip from="-0.0.00" to="19.0.00" walkFactor="0.75"/>
    </person>
    <person id="ped48" depart="9.60" type="walker.pedestrian.0036">
        <personTrip from="12.0.00" to="52.0.00" walkFactor="0.75"/>
    </person>
    <person id="ped49" depart="9.80" type="walker.pedestrian.0040">
        <personTrip from="12.0.00" to="52.0.00" walkFactor="0.75"/>
    </person>
    <person id="ped50" depart="10.00" type="walker.pedestrian.0001">
        <personTrip from="-3.0.00" to="51.0.00" walkFactor="0.75"/>
    </person>
    <person id="ped51" depart="10.20" type="walker.pedestrian.0002">
        <personTrip from="8.0.00" to="-13.0.00" walkFactor="0.75"/>
    </person>
    <person id="ped52" depart="10.40" type="walker.pedestrian.0007">
        <personTrip from="-51.0.00" to="4.0.00" walkFactor="0.75"/>
    </person>
    <person id="ped53" depart="10.60" type="walker.pedestrian.0010">
        <personTrip from="19.0.00" to="51.0.00" walkFactor="0.75"/>
    </person>
    <person id="ped54" depart="10.80" type="walker.pedestrian.0015">
        <personTrip from="51.0.00" to="-1.0.00" walkFactor="0.75"/>
    </person>
    <person id="ped55" depart="11.00" type="walker.pedestrian.0021">
        <personTrip from="52.0.00" to="12.0.00" walkFactor="0.75"/>
    </person>
    <person id="ped56" depart="11.20" type="walker.pedestrian.0029">
        <personTrip from="29.0.00" to="51.0.00" walkFactor="0.75"/>
    </person>
    <person id="ped57" depart="11.40" type="walker.pedestrian.0030">
        <personTrip from="-4.0.00" to="51.0.00" walkFactor="0.75"/>
    </person>
    <person id="ped58" depart="11.60" type="walker.pedestrian.0036">
        <personTrip from="-16.0.00" to="19.0.00" walkFactor="0.75"/>
    </person>
    <person id="ped59" depart="11.80" type="walker.pedestrian.0040">
        <personTrip from="24.0.00" to="-0.0.00" walkFactor="0.75"/>
    </person>
    <person id="ped60" depart="12.00" type="walker.pedestrian.0001">
        <personTrip from="-0.0.00" to="4.0.00" walkFactor="0.75"/>
    </person>
    <person id="ped61" depart="12.20" type="walker.pedestrian.0002">
        <personTrip from="-12.0.00" to="51.0.00" walkFactor="0.75"/>
    </person>
    <person id="ped62" depart="12.40" type="walker.pedestrian.0007">
        <personTrip from="52.0.00" to="24.0.00" walkFactor="0.75"/>
    </person>
    <person id="ped63" depart="12.60" type="walker.pedestrian.0010">
        <personTrip from="21.0.00" to="8.0.00" walkFactor="0.75"/>
    </person>
    <person id="ped64" depart="12.80" type="walker.pedestrian.0015">
        <personTrip from="19.0.00" to="-51.0.00" walkFactor="0.75"/>
    </person>
    <person id="ped65" depart="13.00" type="walker.pedestrian.0021">
        <personTrip from="4.0.00" to="-16.0.00" walkFactor="0.75"/>
    </person>
    <person id="ped66" depart="13.20" type="walker.pedestrian.0029">
        <personTrip from="51.0.00" to="29.0.00" walkFactor="0.75"/>
    </person>
    <person id="ped67" depart="13.40" type="walker.pedestrian.0030">
        <personTrip from="51.0.00" to="3.0.00" walkFactor="0.75"/>
    </person>
    <person id="ped68" depart="13.60" type="walker.pedestrian.0036">
        <personTrip from="51.0.00" to="-2.0.00" walkFactor="0.75"/>
    </person>
    <person id="ped69" depart="13.80" type="walker.pedestrian.0040">
        <personTrip from="-51.0.00" to="19.0.00" walkFactor="0.75"/>
    </person>
    <person id="ped70" depart="14.00" type="walker.pedestrian.0001">
        <personTrip from="51.0.00" to="26.0.00" walkFactor="0.75"/>
    </person>
    <person id="ped71" depart="14.20" type="walker.pedestrian.0002">
        <personTrip from="-28.0.00" to="51.0.00" walkFactor="0.75"/>
    </person>
    <person id="ped72" depart="14.40" type="walker.pedestrian.0007">
        <personTrip from="-0.0.00" to="4.0.00" walkFactor="0.75"/>
    </person>
    <person id="ped73" depart="14.60" type="walker.pedestrian.0010">
        <personTrip from="52.0.00" to="21.0.00" walkFactor="0.75"/>
    </person>
    <person id="ped74" depart="14.80" type="walker.pedestrian.0015">
        <personTrip from="24.0.00" to="-16.0.00" walkFactor="0.75"/>
    </person>
    <person id="ped75" depart="15.00" type="walker.pedestrian.0021">
        <personTrip from="-12.0.00" to="51.0.00" walkFactor="0.75"/>
    </person>
    <person id="ped76" depart="15.20" type="walker.pedestrian.0029">
        <personTrip from="-3.0.00" to="51.0.00" walkFactor="0.75"/>
    </person>
    <person id="ped77" depart="15.40" type="walker.pedestrian.0030">
        <personTrip from="-4.0.00" to="51.0.00" walkFactor="0.75"/>
    </person>
    <person id="ped78" depart="15.60" type="walker.pedestrian.0036">
        <personTrip from="51.0.00" to="-26.0.00" walkFactor="0.75"/>
    </person>
    <person id="ped79" depart="15.80" type="walker.pedestrian.0040">
        <personTrip from="8.0.00" to="24.0.00" walkFactor="0.75"/>
    </person>
    <person id="ped80" depart="16.00" type="walker.pedestrian.0001">
        <personTrip from="51.0.00" to="4.0.00" walkFactor="0.75"/>
    </person>
    <person id="ped81" depart="16.20" type="walker.pedestrian.0002">
        <personTrip from="51.0.00" to="11.0.00" walkFactor="0.75"/>
    </person>
    <person id="ped82" depart="16.40" type="walker.pedestrian.0007">
        <personTrip from="21.0.00" to="8.0.00" walkFactor="0.75"/>
    </person>
    <person id="ped83" depart="16.60" type="walker.pedestrian.0010">
        <personTrip from="-51.0.00" to="24.0.00" walkFactor="0.75"/>
    </person>
    <person id="ped84" depart="16.80" type="walker.pedestrian.0015">
        <personTrip from="-0.0.00" to="4.0.00" walkFactor="0.75"/>
    </person>
    <person id="ped85" depart="17.00" type="walker.pedestrian.0021">
        <personTrip from="52.0.00" to="12.0.00" walkFactor="0.75"/>
    </person>
    <person id="ped86" depart="17.20" type="walker.pedestrian.0029">
        <personTrip from="51.0.00" to="-1.0.00" walkFactor="0.75"/>
    </person>
    <person id="ped87" depart="17.40" type="walker.pedestrian.0030">
        <personTrip from="52.0.00" to="21.0.00" walkFactor="0.75"/>
    </person>
    <person id="ped88" depart="17.60" type="walker.pedestrian.0036">
        <personTrip from="24.0.00" to="51.0.00" walkFactor="0.75"/>
    </person>
    <person id="ped89" depart="17.80" type="walker.pedestrian.0040">
        <personTrip from="-0.0.00" to="19.0.00" walkFactor="0.75"/>
    </person>
    <person id="ped90" depart="18.00" type="walker.pedestrian.0001">
        <personTrip from="52.0.00" to="12.0.00" walkFactor="0.75"/>
    </person>
    <person id="ped91" depart="18.20" type="walker.pedestrian.0002">
        <personTrip from="12.0.00" to="52.0.00" walkFactor="0.75"/>
    </person>
    <person id="ped92" depart="18.40" type="walker.pedestrian.0007">
        <personTrip from="51.0.00" to="-13.0.00" walkFactor="0.75"/>
    </person>
    <person id="ped93" depart="18.60" type="walker.pedestrian.0010">
        <personTrip from="4.0.00" to="51.0.00" walkFactor="0.75"/>
    </person>
    <person id="ped94" depart="18.80" type="walker.pedestrian.0015">
        <personTrip from="51.0.00" to="19.0.00" walkFactor="0.75"/>
    </person>
    <person id="ped95" depart="19.00" type="walker.pedestrian.0021">
        <personTrip from="24.0.00" to="52.0.00" walkFactor="0.75"/>
    </person>
    <person id="ped96" depart="19.20" type="walker.pedestrian.0029">
        <personTrip from="-16.0.00" to="19.0.00" walkFactor="0.75"/>
    </person>
    <person id="ped97" depart="19.40" type="walker.pedestrian.0030">
        <personTrip from="52.0.00" to="24.0.00" walkFactor="0.75"/>
    </person>
    <person id="ped98" depart="19.60" type="walker.pedestrian.0036">
        <personTrip from="51.0.00" to="-2.0.00" walkFactor="0.75"/>
    </person>
    <person id="ped99" depart="19.80" type="walker.pedestrian.0040">
        <personTrip from="-51.0.00" to="24.0.00" walkFactor="0.75"/>
    </person>
    <person id="ped100" depart="20.00" type="walker.pedestrian.0001">
        <personTrip from="51.0.00" to="-1.0.00" walkFactor="0.75"/>
    </person>
    <person id="ped101" depart="20.20" type="walker.pedestrian.0002">
        <personTrip from="-16.0.00" to="19.0.00" walkFactor="0.75"/>
    </person>
    <person id="ped102" depart="20.40" type="walker.pedestrian.0007">
        <personTrip from="24.0.00" to="-16.0.00" walkFactor="0.75"/>
    </person>
    <person id="ped103" depart="20.60" type="walker.pedestrian.0010">
        <personTrip from="24.0.00" to="-51.0.00" walkFactor="0.75"/>
    </person>
    <person id="ped104" depart="20.80" type="walker.pedestrian.0015">
        <personTrip from="-13.0.00" to="51.0.00" walkFactor="0.75"/>
    </person>
    <person id="ped105" depart="21.00" type="walker.pedestrian.0021">
        <personTrip from="29.0.00" to="51.0.00" walkFactor="0.75"/>
    </person>
    <person id="ped106" depart="21.20" type="walker.pedestrian.0029">
        <personTrip from="52.0.00" to="12.0.00" walkFactor="0.75"/>
    </person>
    <person id="ped107" depart="21.40" type="walker.pedestrian.0030">
        <personTrip from="-1.0.00" to="51.0.00" walkFactor="0.75"/>
    </person>
    <person id="ped108" depart="21.60" type="walker.pedestrian.0036">
        <personTrip from="24.0.00" to="52.0.00" walkFactor="0.75"/>
    </person>
    <person id="ped109" depart="21.80" type="walker.pedestrian.0040">
        <personTrip from="-13.0.00" to="8.0.00" walkFactor="0.75"/>
    </person>
    <person id="ped110" depart="22.00" type="walker.pedestrian.0001">
        <personTrip from="4.0.00" to="-0.0.00" walkFactor="0.75"/>
    </person>
    <person id="ped111" depart="22.20" type="walker.pedestrian.0002">
        <personTrip from="-4.0.00" to="51.0.00" walkFactor="0.75"/>
    </person>
    <person id="ped112" depart="22.40" type="walker.pedestrian.0007">
        <personTrip from="51.0.00" to="12.0.00" walkFactor="0.75"/>
    </person>
    <person id="ped113" depart="22.60" type="walker.pedestrian.0010">
        <personTrip from="-26.0.00" to="51.0.00" walkFactor="0.75"/>
    </person>
    <person id="ped114" depart="22.80" type="walker.pedestrian.0015">
        <personTrip from="21.0.00" to="52.0.00" walkFactor="0.75"/>
    </person>
    <person id="ped115" depart="23.00" type="walker.pedestrian.0021">
        <personTrip from="51.0.00" to="-4.0.00" walkFactor="0.75"/>
    </person>
    <person id="ped116" depart="23.20" type="walker.pedestrian.0029">
        <personTrip from="24.0.00" to="51.0.00" walkFactor="0.75"/>
    </person>
    <person id="ped117" depart="23.40" type="walker.pedestrian.0030">
        <personTrip from="-0.0.00" to="19.0.00" walkFactor="0.75"/>
    </person>
    <person id="ped118" depart="23.60" type="walker.pedestrian.0036">
        <personTrip from="4.0.00" to="-0.0.00" walkFactor="0.75"/>
    </person>
    <person id="ped119" depart="23.80" type="walker.pedestrian.0040">
        <personTrip from="8.0.00" to="-13.0.00" walkFactor="0.75"/>
    </person>
    <person id="ped120" depart="24.00" type="walker.pedestrian.0001">
        <personTrip from="-1.0.00" to="51.0.00" walkFactor="0.75"/>
    </person>
    <person id="ped121" depart="24.20" type="walker.pedestrian.0002">
        <personTrip from="30.0.00" to="51.0.00" walkFactor="0.75"/>
    </person>
    <person id="ped122" depart="24.40" type="walker.pedestrian.0007">
        <personTrip from="51.0.00" to="4.0.00" walkFactor="0.75"/>
    </person>
    <person id="ped123" depart="24.60" type="walker.pedestrian.0010">
        <personTrip from="-51.0.00" to="19.0.00" walkFactor="0.75"/>
    </person>
    <person id="ped124" depart="24.80" type="walker.pedestrian.0015">
        <personTrip from="8.0.00" to="12.0.00" walkFactor="0.75"/>
    </person>
    <person id="ped125" depart="25.00" type="walker.pedestrian.0021">
        <personTrip from="-2.0.00" to="51.0.00" walkFactor="0.75"/>
    </person>
    <person id="ped126" depart="25.20" type="walker.pedestrian.0029">
        <personTrip from="-51.0.00" to="24.0.00" walkFactor="0.75"/>
    </person>
    <person id="ped127" depart="25.40" type="walker.pedestrian.0030">
        <personTrip from="51.0.00" to="-13.0.00" walkFactor="0.75"/>
    </person>
    <person id="ped128" depart="25.60" type="walker.pedestrian.0036">
        <personTrip from="24.0.00" to="-51.0.00" walkFactor="0.75"/>
    </person>
    <person id="ped129" depart="25.80" type="walker.pedestrian.0040">
        <personTrip from="51.0.00" to="4.0.00" walkFactor="0.75"/>
    </person>
    <person id="ped130" depart="26.00" type="walker.pedestrian.0001">
        <personTrip from="51.0.00" to="-13.0.00" walkFactor="0.75"/>
    </person>
    <person id="ped131" depart="26.20" type="walker.pedestrian.0002">
        <personTrip from="21.0.00" to="8.0.00" walkFactor="0.75"/>
    </person>
    <person id="ped132" depart="26.40" type="walker.pedestrian.0007">
        <personTrip from="-0.0.00" to="24.0.00" walkFactor="0.75"/>
    </person>
    <person id="ped133" depart="26.60" type="walker.pedestrian.0010">
        <personTrip from="4.0.00" to="-51.0.00" walkFactor="0.75"/>
    </person>
    <person id="ped134" depart="26.80" type="walker.pedestrian.0015">
        <personTrip from="52.0.00" to="24.0.00" walkFactor="0.75"/>
    </person>
    <person id="ped135" depart="27.00" type="walker.pedestrian.0021">
        <personTrip from="51.0.00" to="-27.0.00" walkFactor="0.75"/>
    </person>
    <person id="ped136" depart="27.20" type="walker.pedestrian.0029">
        <personTrip from="26.0.00" to="51.0.00" walkFactor="0.75"/>
    </person>
    <person id="ped137" depart="27.40" type="walker.pedestrian.0030">
        <personTrip from="4.0.00" to="-16.0.00" walkFactor="0.75"/>
    </person>
    <person id="ped138" depart="27.60" type="walker.pedestrian.0036">
        <personTrip from="51.0.00" to="-4.0.00" walkFactor="0.75"/>
    </person>
    <person id="ped139" depart="27.80" type="walker.pedestrian.0040">
        <personTrip from="-3.0.00" to="51.0.00" walkFactor="0.75"/>
    </person>
    <person id="ped140" depart="28.00" type="walker.pedestrian.0001">
        <personTrip from="12.0.00" to="52.0.00" walkFactor="0.75"/>
    </person>
    <person id="ped141" depart="28.20" type="walker.pedestrian.0002">
        <personTrip from="12.0.00" to="8.0.00" walkFactor="0.75"/>
    </person>
    <person id="ped142" depart="28.40" type="walker.pedestrian.0007">
        <personTrip from="51.0.00" to="19.0.00" walkFactor="0.75"/>
    </person>
    <person id="ped143" depart="28.60" type="walker.pedestrian.0010">
        <personTrip from="-13.0.00" to="51.0.00" walkFactor="0.75"/>
    </person>
    <person id="ped144" depart="28.80" type="walker.pedestrian.0015">
        <personTrip from="51.0.00" to="12.0.00" walkFactor="0.75"/>
    </person>
    <person id="ped145" depart="29.00" type="walker.pedestrian.0021">
        <personTrip from="-27.0.00" to="51.0.00" walkFactor="0.75"/>
    </person>
    <person id="ped146" depart="29.20" type="walker.pedestrian.0029">
        <personTrip from="8.0.00" to="21.0.00" walkFactor="0.75"/>
    </person>
    <person id="ped147" depart="29.40" type="walker.pedestrian.0030">
        <personTrip from="-0.0.00" to="19.0.00" walkFactor="0.75"/>
    </person>
    <person id="ped148" depart="29.60" type="walker.pedestrian.0036">
        <personTrip from="-27.0.00" to="51.0.00" walkFactor="0.75"/>
    </person>
    <person id="ped149" depart="29.80" type="walker.pedestrian.0040">
        <personTrip from="24.0.00" to="51.0.00" walkFactor="0.75"/>
    </person>
</routes>
