<?xml version='1.0' encoding='UTF-8'?>
<!-- generated on 2023-11-14 21:32:00 by Eclipse SUMO jtrrouter Version 1.18.0
<configuration xmlns:xsi="http://www.w3.org/2001/XMLSchema-instance" xsi:noNamespaceSchemaLocation="http://sumo.dlr.de/xsd/jtrrouterConfiguration.xsd">

    <input>
        <net-file value="/home/lrs/scripts/V2X-TSG/data_collection/data/net/Town07_C.net.xml"/>
        <route-files value="/home/lrs/scripts/V2X-TSG/data_collection/data/rou/Town07_veh.flows.xml"/>
        <turn-ratio-files value="/home/lrs/scripts/V2X-TSG/data_collection/data/turn/Town07.turns.xml"/>
    </input>

    <output>
        <output-file value="/home/lrs/scripts/V2X-TSG/data_collection/data/rou/Town07_veh.rou.xml"/>
    </output>

    <processing>
        <turn-defaults value="25,50,25"/>
        <accept-all-destinations value="true"/>
        <allow-loops value="true"/>
    </processing>

    <report>
        <verbose value="true"/>
    </report>

    <random_number>
        <seed value="44"/>
    </random_number>

</configuration>
-->
<routes xmlns:xsi="http://www.w3.org/2001/XMLSchema-instance" xsi:noNamespaceSchemaLocation="http://sumo.dlr.de/xsd/routes_file.xsd">
    <vehicle id="ped0.0" depart="0.00" departPos="random" departSpeed="max" type="vehicle.audi.a2">
        <route edges="-58 -46 -37 -1 59 -46 -37 -1 59 58 57 39 20 24 62 61 60 1 37 -47 -43 29 28 27 14 13 -51 -52 -53 34 33 -4 -5#0 -5#1 -6 -7#0 -7#1 -8 57 39 20 24 23 15 -27 -28 -29 -44 -45 61 60 1 37 46 58 57 39 20 24 62 45 -55 -56 -24 -20 -21 -57 -58 -59 1 37 46 58 8 7#1 7#0 6 5#1 5#0 4 3 11 20 -25 -26#0 -26#1 14 -16 -17 -18 -42 47 36 -32 -40 35 34 33 3 -12 -51 -52 -53 -35 -41 -42 -43 -44 -0 37 -47 -43 29 28 27 26#1 26#0 25 -20 -21 -57 -58 -59 -60 -61 -62 -24 -20 -21 -57 8 7#1 7#0 6 5#1 5#0 4 -33 -34 -35 -41 18 17 16 13 12 11 20 24 62 45 44 29 28 27 14 -16 -17 -18 -42 -43 29 28 27 26#1 26#0 25 -20 -21 -57 -58 -59 1 0 -45 -62 -24 -20 -21 -57 8 7#1 7#0 6 5#1 5#0 4 -33 -34 -35 40 -50 -36 -37 -1 -60 -61 45 -0 37 36 -32 -40 -41 18 17 16 -14 -27 -28 -29 43 42 18 17 16 13 12 -3 -4 -5#0 -5#1 -6 -7#0 -7#1 -8 57 39 20 24 62 45 -55 -56 -24 -20 -21 -57 8 7#1 7#0 6 5#1 5#0 4 -33 -34 -35 -41 -42 47 46 58 8 7#1 7#0 6 5#1 5#0 4 -33 -34 53 52 51 12 11 -21 -57 -58 -46 -37 -1 59 58 8 7#1 7#0 6 5#1 5#0 4 3 11 20 24 62 61 60 59 -46 -37 -1 -60 -61 -62 -24 -20 -21 -57 8 7#1 7#0 6 5#1 5#0 4 -33 -34 53 -63 -64 -65 -66 -67 51 -13 -16 -17 -18 -42 -43 -44 -45 61 60 59 -46 36 -32 -40 -41 18 17 16 13 12 11 20 24 23 55 44 29 28 27 26#1 26#0 25 -20 -21 -57 -58 -46 -37 0 -55 -56 62 45 44 29 28 27 26#1 26#0 25 24 62 61 60 1 0 44 29 28 27 -15 -56 -24 -20 -21 -57 -58 -46 36 -32 -40 35 53 52 51 -13 -16 -17 -18 41 35 53 52 51 -13 -16 -17 -18 41 40 -50 -36 -37 -1 -60 -61 45 -0 -1 -60 -61 45 -55 -56 -24 -20 -21 -57 -58 -59 -60 -61 45 44 29 28 27 14 13 12 -3 -33 -34 -35 -41 18 17 16 13 12 11 -21 -57 -58 -59 1 0 -55 15 -27 -28 -29 -44 -55 15 -27 -28 -29 43 47 36 -32 -40 35 53 52 51 12 -3 -33 -34 53 -63 -64 -65 -66 -67 51 12 -3 -4 -5#0 -5#1 -6 -7#0 -7#1 -8 -58 -59 -60 -61 45 44 29 28 27 -15 -56 62 61 60 1 0 -55 15 -27 -28 -29 -44 -45 -62 -24 -20 -21 -57 -58 -59 -60 -61 45 -0 -1 -60 -61 45 44 43 42 18 17 16 13 12 -3 -33 -34 -35 -41 -42 -43 29 28 27 26#1 26#0 25 24 62 45 -0 -1 -60 -61 -62 -24 -20 -21 -57 -58 -59 -60 -61 45 44 43 47 36 -32 -40 35 53 -63 -64 -65 -66 -67 51 12 -3 -33 -34 53 52 51 12 11 20 -25 -26#0 -26#1 14 -16 -17 -18 -42 -43 29 28 27 14 -16 -17 -18 41 40 -50 -36 -37 0 -55 -56 62 61 60 1 0 -55 -56 -24 -20 -21 -57 -58 -46 -47 42 41 35 53 52 51 12 11 20 24 62 45 44 29 28 27 14 13 12 11 20 24 62 45 -55 15 -27 -28 -29 43 47 36 -32 -40 35 53 52 51 12 -3 -4 -5#0 -5#1 -6 -7#0 -7#1 -8 57 39 20 24 62 45 -55 15 26#1 26#0 25 -20 -21 -57 8 7#1 7#0 6 5#1 5#0 4 3 11 20 24 62 61 60 1 0 -55 15 26#1 26#0 25 -20 -21 -57 8 7#1 7#0 6 5#1 5#0 4 3 11 -21 -57 -58 -46 36 -32 -40 35 34 33 -4 -5#0 -5#1 -6 -7#0 -7#1 -8 57 39 20 24 62 61 60 1 0 44 29 28 27 14 -16 -17 -18 -42 47 36 -32 -40 35 53 52 51 12 11 -21 -57 -58 -59 1 37 36 -32 -40 -41 18 17 16 -14 -15 -56 -24 -20 -21 -57 8 7#1 7#0 6 5#1 5#0 4 3 11 -21 -57 8 7#1 7#0 6 5#1 5#0 4 -33 -34 53 -63 -64 -65 -66 -67 51 12 11 20 24 62 45 -55 -56"/>
    </vehicle>
    <vehicle id="ped1.0" depart="0.00" departPos="random" departSpeed="max" type="vehicle.audi.tt">
        <route edges="5#0 4 -33 -34 53 -63 -64 -65 -66 -67 51 -13 -16 -17 -18 -42 47 36 -32 -40 -41 18 17 16 13 -51 -52 -53 -35 -41 -42 47 36 -32 -40 35 34 33 -4 -5#0 -5#1 -6 -7#0 -7#1 -8 -58 -46 -37 -1 -60 -61 45 44 29 28 27 14 -16 -17 -18 -42 47 36 -32 -40 -41 -42 -43 29 28 27 14 13 12 -3 -33 -34 -35 40 -50 -36 46 58 57 39 20 24 62 61 60 59 -46 -47 42 41 35 53 52 51 -13 -14 -27 -28 -29 43 47 46 -59 -60 -61 -62 -24 -20 -21 -57 8 7#1 7#0 6 5#1 5#0 4 3 -12 -51 -52 -53 34 33 -4 -5#0 -5#1 -6 -7#0 -7#1 -8 -58 -46 36 -32 -40 35 53 -63 -64 -65 -66 -67 51 -13 -16 -17 -18 -42 47 46 58 57 39 -11 -12 -51 -52 -53 -35 40 -50 -36 46 -59 1 37 -47 42 41 40 -50 -36 46 58 57 39 20 24 23 55 44 43 47 36 -32 -40 -41 18 17 16 -14 -27 -28 -29 -44 -55 -56 -24 -20 -21 -57 8 7#1 7#0 6 5#1 5#0 4 -33 -34 -35 -41 -42 47 -37 -1 -60 -61 45 44 29 28 27 14 -16 -17 -18 -42 -43 -44 -55 15 14 13 -51 -52 -53 -35 40 -50 -36 -37 0 -55 -56 -24 -20 -21 -57 8 7#1 7#0 6 5#1 5#0 4 -33 -34 53 -63 -64 -65 -66 -67 51 12 11 -21 -57 8 7#1 7#0 6 5#1 5#0 4 -33 -34 -35 -41 18 17 16 13 -51 -52 -53 -35 -41 18 17 16 13 12 -3 -4 -5#0 -5#1 -6 -7#0 -7#1 -8 -58 -46 36 -32 -40 35 53 52 51 12 11 20 24 62 61 60 1 37 36 -32 -40 -41 -42 47 46 58 57 39 20 24 62 61 60 1 37 -47 -43 29 28 27 -15 -56 62 45 44 29 28 27 14 13 -51 -52 -53 -35 -41 18 17 16 -14 -15 -56 -24 -20 -21 -57 8 7#1 7#0 6 5#1 5#0 4 -33 -34 53 -63 -64 -65 -66 -67 51 -13 -14 26#1 26#0 25 24 62 61 60 1 37 -47 -43 29 28 27 -15 -56 62 45 -55 15 -27 -28 -29 -44 -45 61 60 1 37 36 -32 -40 -41 18 17 16 13 -51 -52 -53 -35 -41 18 17 16 13 -51 -52 -53 34 33 -4 -5#0 -5#1 -6 -7#0 -7#1 -8 -58 -59 1 0 -45 61 60 1 0 44 43 47 36 -32 -40 -41 18 17 16 -14 -15 -56 -24 -20 -21 -57 -58 -46 -37 0 -55 15 26#1 26#0 25 -20 -21 -57 -58 -46 36 -32 -40 35 53 52 51 12 11 20 24 23 55 -0 37 46 58 8 7#1 7#0 6 5#1 5#0 4 3 11 -21 -57 8 7#1 7#0 6 5#1 5#0 4 3 -12 -51 -52 -53 34 33 -4 -5#0 -5#1 -6 -7#0 -7#1 -8 57 39 20 24 62 61 60 59 -46 36 -32 -40 35 53 52 51 12 11 20 24 62 45 44 43 42 18 17 16 13 12 11 20 -25 -26#0 -26#1 -27 -28 -29 43 47 -37 0 -55 -56 -24 -20 -21 -57 8 7#1 7#0 6 5#1 5#0 4 -33 -34 -35 40 -50 -36 46 -59 1 37 46 -59 -60 -61 45 44 29 28 27 26#1 26#0 25 24 62 45 -0 -1 -60 -61 45 44 29 28 27 -15 55 -45 -62 -24 -20 -21 -57 -58 -59 1 0 -55 -56 -24 -20 -21 -57 -58 -46 -37 -1 -60 -61 -62 -24 -20 -21 -57 -58 -59 -60 -61 45 44 29 28 27 -15 -56 62 45 -0 37 -47 -43 29 28 27 14 -16 -17 -18 -42 47 36 -32 -40 -41 18 17 16 13 -51 -52 -53 34 33 -4 -5#0 -5#1 -6 -7#0 -7#1 -8 -58 -59 1 37 36 -32 -40 35 53 52 51 12 11 20 -25 -26#0 -26#1 14 13 12 11 -21 -57 -58 -46 -37 0 -55 -56 -24 -20 -21 -57 -58 -46 -47 42 41 40 -50 -36 46 58 8 7#1 7#0 6 5#1 5#0 4 -33 -34 -35 40 -50 -36 -37 -1 59 58 8 7#1 7#0 6 5#1 5#0 4 -33 -34 53 52 51 -13 -14 26#1 26#0 25 -20 -21 -57 -58 -59 -60 -61 45 44 43 47 36 -32 -40 -41 -42 -43 -44 -45 -62 -24 -20 -21 -57 -58 -46 36 -32 -40 -41 18 17 16 13 -51 -52 -53 -35 -41 -42 47 36 -32 -40 35 53 -63"/>
    </vehicle>
    <vehicle id="ped10.0" depart="0.00" departPos="random" departSpeed="max" type="vehicle.bmw.grandtourer">
        <route edges="-16 -17 -18 -42 -43 29 28 27 14 -16 -17 -18 -42 -43 -44 -45 -62 -24 -20 -21 -57 8 7#1 7#0 6 5#1 5#0 4 3 11 -21 -57 -58 -46 36 -32 -40 -41 -42 47 36 -32 -40 35 34 33 3 -12 -13 -16 -17 -18 -42 -43 29 28 27 -15 55 44 29 28 27 -15 -56 62 45 44 29 28 27 26#1 26#0 25 -20 -21 -57 -58 -59 1 37 -47 -43 29 28 27 -15 -56 -24 -20 -21 -57 8 7#1 7#0 6 5#1 5#0 4 3 11 -21 -57 -58 -59 -60 -61 -62 -24 -20 -21 -57 8 7#1 7#0 6 5#1 5#0 4 -33 -34 53 52 51 -13 -16 -17 -18 41 40 -50 -36 46 -59 1 37 36 -32 -40 -41 -42 47 36 -32 -40 35 53 -63 -64 -65 -66 -67 51 12 11 20 24 62 45 -0 37 -47 42 18 17 16 -14 26#1 26#0 25 24 62 61 60 59 -46 -47 -43 29 28 27 -15 -56 -24 -20 -21 -57 -58 -46 -37 0 -45 61 60 59 58 8 7#1 7#0 6 5#1 5#0 4 -33 -34 -35 40 -50 -36 -37 -1 -60 -61 45 -55 15 26#1 26#0 25 -20 -21 -57 -58 -59 1 0 -55 15 -27 -28 -29 43 42 18 17 16 -14 -27 -28 -29 -44 -0 37 -47 -43 29 28 27 14 13 12 -3 -33 -34 -35 -41 -42 47 36 -32 -40 -41 -42 -43 -44 -45 61 60 1 0 -45 61 60 1 37 46 -59 1 0 -45 61 60 1 37 36 -32 -40 -41 18 17 16 -14 -27 -28 -29 -44 -45 -62 -24 -20 -21 -57 8 7#1 7#0 6 5#1 5#0 4 -33 -34 -35 -41 -42 -43 -44 -55 15 -27 -28 -29 -44 -45 61 60 1 0 -55 15 26#1 26#0 25 -20 -21 -57 -58 -46 -37 0 -55 -56 -24 -20 -21 -57 8 7#1 7#0 6 5#1 5#0 4 3 11 -21 -57 8 7#1 7#0 6 5#1 5#0 4 3 11 20 24 62 61 60 1 0 -55 -56 -24 -20 -21 -57 -58 -59 1 0 -55 -56 62 45 -55 -56 62 61 60 1 37 46 58 8 7#1 7#0 6 5#1 5#0 4 3 -12 -51 -52 -53 34 33 -4 -5#0 -5#1 -6 -7#0 -7#1 -8 -58 -59 -60 -61 -62 -24 -20 -21 -57 8 7#1 7#0 6 5#1 5#0 4 -33 -34 53 52 51 12 -3 -4 -5#0 -5#1 -6 -7#0 -7#1 -8 -58 -46 -47 -43 29 28 27 14 13 -51 -52 -53 -35 40 -50 -36 -37 0 -55 -56 62 61 60 1 0 -55 15 -27 -28 -29 -44 -0 -1 -60 -61 -62 -24 -20 -21 -57 -58 -59 1 0 44 43 47 -37 0 -45 61 60 1 0 -55 15 26#1 26#0 25 -20 -21 -57 -58 -46 -37 -1 59 58 57 39 20 -25 -26#0 -26#1 -15 -56 62 45 -55 15 -27 -28 -29 -44 -55 15 -27 -28 -29 -44 -55 -56 -24 -20 -21 -57 8 7#1 7#0 6 5#1 5#0 4 -33 -34 -35 -41 18 17 16 13 12 11 20 24 62 61 60 1 37 46 -59 1 0 -55 15 -27 -28 -29 -44 -45 61 60 59 58 57 39 20 24 62 45 -55 -56 62 61 60 1 0 44 43 42 18 17 16 -14 -15 -56 -24 -20 -21 -57 -58 -59 -60 -61 -62 -24 -20 -21 -57 8 7#1 7#0 6 5#1 5#0 4 -33 -34 -35 40 -50 -36 -47 -43 29 28 27 14 -16 -17 -18 41 35 53 52 51 -13 -16 -17 -18 -42 -43 29 28 27 -15 55 -45 -62 -24 -20 -21 -57 8 7#1 7#0 6 5#1 5#0 4 -33 -34 53 52 51 12 11 -21 -57 8 7#1 7#0 6 5#1 5#0 4 -33 -34 53 -63 -64 -65 -66 -67 51 12 -3 -33 -34 53 52 51 12 -3 -4 -5#0 -5#1 -6 -7#0 -7#1 -8 57 39 20 24 62 45 -0 -1 -60 -61 -62 -24 -20 -21 -57 -58 -46 -37 0 -55 -56 62 45 44 43 47 36 -32 -40 35 34 33 -4 -5#0 -5#1 -6 -7#0 -7#1 -8 -58 -59 -60 -61 45 -55 -56 -24 -20 -21 -57 -58 -46 36 -32 -40 35 34 33 3 -12 -51 -52 -53 -35 -41 -42 47 46 -59 -60 -61 -62 -24 -20 -21 -57 8 7#1 7#0 6 5#1 5#0 4 3 11 20 24 62 61 60 59 -46 -37 0 -45 61 60 59 58 8 7#1 7#0 6 5#1 5#0 4 -33 -34 -35 40 -50 -36 46 -59 -60 -61 45 44"/>
    </vehicle>
    <vehicle id="ped11.0" depart="0.00" departPos="random" departSpeed="max" type="vehicle.chevrolet.impala">
        <route edges="61 60 1 37 -47 42 18 17 16 13 -51 -52 -53 34 33 -4 -5#0 -5#1 -6 -7#0 -7#1 -8 -58 -46 36 -32 -40 -41 18 17 16 -14 -15 -56 62 45 44 29 28 27 -15 55 44 43 47 36 -32 -40 -41 -42 -43 29 28 27 14 -16 -17 -18 -42 -43 -44 -0 -1 -60 -61 -62 -24 -20 -21 -57 8 7#1 7#0 6 5#1 5#0 4 -33 -34 53 52 51 -13 -16 -17 -18 41 35 53 52 51 12 -3 -4 -5#0 -5#1 -6 -7#0 -7#1 -8 57 39 20 24 62 61 60 59 -46 -47 42 18 17 16 -14 -27 -28 -29 -44 -55 15 -27 -28 -29 -44 -45 -62 -24 -20 -21 -57 -58 -59 1 0 -45 -62 -24 -20 -21 -57 -58 -59 -60 -61 -62 -24 -20 -21 -57 -58 -59 1 37 36 -32 -40 35 53 -63 -64 -65 -66 -67 51 12 11 -21 -57 -58 -46 -37 0 44 29 28 27 26#1 26#0 25 -20 -21 -57 8 7#1 7#0 6 5#1 5#0 4 3 -12 -51 -52 -53 34 33 -4 -5#0 -5#1 -6 -7#0 -7#1 -8 -58 -46 -37 -1 59 58 8 7#1 7#0 6 5#1 5#0 4 -33 -34 53 52 51 12 -3 -4 -5#0 -5#1 -6 -7#0 -7#1 -8 57 39 -11 -3 -4 -5#0 -5#1 -6 -7#0 -7#1 -8 57 39 20 24 62 45 44 43 47 36 -32 -40 -41 -42 -43 29 28 27 14 -16 -17 -18 -42 -43 -44 -45 61 60 59 -46 -47 -43 29 28 27 -15 -56 -24 -20 -21 -57 -58 -46 -47 -43 -44 -45 61 60 59 -46 -37 0 44 29 28 27 -15 -56 -24 -20 -21 -57 8 7#1 7#0 6 5#1 5#0 4 3 11 -21 -57 8 7#1 7#0 6 5#1 5#0 4 3 -12 -13 -14 -27 -28 -29 43 47 46 58 57 39 20 24 62 61 60 1 37 -47 42 41 35 53 52 51 12 11 20 24 62 45 -0 37 36 -32 -40 -41 -42 47 46 58 57 39 20 -25 -26#0 -26#1 -27 -28 -29 -44 -45 -62 -24 -20 -21 -57 -58 -59 1 37 -47 -43 -44 -45 -62 -24 -20 -21 -57 8 7#1 7#0 6 5#1 5#0 4 -33 -34 -35 -41 18 17 16 13 -51 -52 -53 -35 -41 18 17 16 13 -51 -52 -53 -35 -41 -42 47 36 -32 -40 35 53 -63 -64 -65 -66 -67 51 -13 -16 -17 -18 -42 -43 -44 -45 61 60 59 -46 36 -32 -40 35 53 -63 -64 -65 -66 -67 51 -13 -16 -17 -18 -42 47 46 -59 1 0 -55 15 -27 -28 -29 43 47 46 -59 -60 -61 -62 -24 -20 -21 -57 -58 -46 36 -32 -40 35 34 33 3 11 -21 -57 -58 -46 -47 -43 29 28 27 14 -16 -17 -18 -42 47 -37 -1 -60 -61 45 44 29 28 27 14 -16 -17 -18 41 40 -50 -36 -37 -1 59 58 8 7#1 7#0 6 5#1 5#0 4 -33 -34 -35 40 -50 -36 46 58 8 7#1 7#0 6 5#1 5#0 4 3 11 -21 -57 8 7#1 7#0 6 5#1 5#0 4 -33 -34 -35 40 -50 -36 -37 -1 -60 -61 -62 -24 -20 -21 -57 -58 -59 1 37 46 -59 1 0 -45 -62 -24 -20 -21 -57 -58 -46 -37 -1 -60 -61 45 -55 -56 62 45 -0 -1 -60 -61 -62 -24 -20 -21 -57 -58 -46 -47 42 18 17 16 13 -51 -52 -53 -35 -41 18 17 16 -14 -15 -56 62 45 -55 15 -27 -28 -29 -44 -0 -1 -60 -61 -62 -24 -20 -21 -57 8 7#1 7#0 6 5#1 5#0 4 3 -12 -51 -52 -53 -35 -41 18 17 16 -14 -15 55 -45 -62 -24 -20 -21 -57 -58 -46 -37 0 -55 15 -27 -28 -29 -44 -55 -56 62 45 -0 -1 -60 -61 -62 -24 -20 -21 -57 8 7#1 7#0 6 5#1 5#0 4 -33 -34 -35 -41 18 17 16 13 -51 -52 -53 34 33 3 -12 -13 -16 -17 -18 -42 47 -37 -1 -60 -61 45 44 43 47 46 -59 -60 -61 -62 -24 -20 -21 -57 -58 -59 -60 -61 -62 -24 -20 -21 -57 -58 -59 -60 -61 -62 -24 -20 -21 -57 -58 -59 -60 -61 45 -55 15 -27 -28 -29 -44 -0 37 -47 -43 29 28 27 26#1 26#0 25 24 62 61 60 1 37 46 58 57 39 20 24 62 61 60 59 -46 -47 -43 -44 -55 15 -27 -28 -29 -44 -55 -56 -24 -20 -21 -57 -58 -59 1 37 46 -59 1 37 46 -59 -60"/>
    </vehicle>
    <vehicle id="ped12.0" depart="0.00" departPos="random" departSpeed="max" type="vehicle.citroen.c3">
        <route edges="20 24 62 61 60 1 0 -55 15 26#1 26#0 25 -20 -21 -57 -58 -59 1 0 44 43 47 36 -32 -40 -41 18 17 16 13 12 -3 -4 -5#0 -5#1 -6 -7#0 -7#1 -8 57 39 20 24 62 45 -55 15 26#1 26#0 25 -20 -21 -57 -58 -46 -47 -43 -44 -55 -56 62 45 -0 37 46 -59 1 0 -55 -56 62 45 -0 37 -47 42 18 17 16 -14 -15 -56 62 45 -55 15 -27 -28 -29 43 47 36 -32 -40 35 34 33 -4 -5#0 -5#1 -6 -7#0 -7#1 -8 -58 -59 -60 -61 -62 -24 -20 -21 -57 8 7#1 7#0 6 5#1 5#0 4 3 11 20 24 62 45 -0 -1 -60 -61 -62 -24 -20 -21 -57 8 7#1 7#0 6 5#1 5#0 4 -33 -34 -35 -41 18 17 16 13 12 11 -21 -57 8 7#1 7#0 6 5#1 5#0 4 -33 -34 53 52 51 -13 -14 -27 -28 -29 -44 -45 61 60 1 0 -55 15 -27 -28 -29 -44 -45 -62 -24 -20 -21 -57 8 7#1 7#0 6 5#1 5#0 4 3 11 20 24 23 55 -45 61 60 1 37 36 -32 -40 35 53 52 51 12 -3 -33 -34 -35 -41 18 17 16 -14 26#1 26#0 25 24 62 61 60 59 -46 -47 42 18 17 16 13 -51 -52 -53 34 33 3 11 20 24 62 45 44 29 28 27 14 -16 -17 -18 -42 47 36 -32 -40 35 34 33 -4 -5#0 -5#1 -6 -7#0 -7#1 -8 57 39 20 24 62 61 60 1 37 -47 42 18 17 16 -14 -27 -28 -29 -44 -0 -1 -60 -61 -62 -24 -20 -21 -57 -58 -46 36 -32 -40 35 53 52 51 12 11 -21 -57 8 7#1 7#0 6 5#1 5#0 4 -33 -34 -35 -41 18 17 16 -14 26#1 26#0 25 -20 -21 -57 -58 -46 -37 0 44 29 28 27 14 13 -51 -52 -53 -35 -41 18 17 16 13 -51 -52 -53 34 33 -4 -5#0 -5#1 -6 -7#0 -7#1 -8 -58 -59 -60 -61 -62 -24 -20 -21 -57 8 7#1 7#0 6 5#1 5#0 4 -33 -34 53 -63 -64 -65 -66 -67 51 12 11 -21 -57 8 7#1 7#0 6 5#1 5#0 4 3 11 -21 -57 -58 -46 36 -32 -40 35 53 52 51 -13 -16 -17 -18 41 40 -50 -36 46 58 8 7#1 7#0 6 5#1 5#0 4 3 11 -21 -57 -58 -46 -37 0 44 29 28 27 -15 -56 62 61 60 1 0 44 43 42 18 17 16 -14 -27 -28 -29 43 42 18 17 16 13 -51 -52 -53 -35 40 -50 -36 -47 -43 29 28 27 14 -16 -17 -18 -42 47 36 -32 -40 -41 18 17 16 13 12 11 -21 -57 -58 -59 -60 -61 45 -0 37 -47 42 18 17 16 13 12 11 20 24 62 45 -0 37 36 -32 -40 35 53 52 51 12 11 20 24 62 45 -55 15 -27 -28 -29 -44 -45 61 60 59 -46 -37 -1 59 -46 -37 0 -45 61 60 59 58 8 7#1 7#0 6 5#1 5#0 4 -33 -34 53 52 51 12 11 -21 -57 -58 -59 1 37 -47 -43 -44 -55 -56 62 45 44 29 28 27 -15 -56 -24 -20 -21 -57 8 7#1 7#0 6 5#1 5#0 4 3 -12 -51 -52 -53 -35 40 -50 -36 46 -59 1 0 -55 -56 62 45 -0 37 46 58 57 39 20 24 23 55 -45 61 60 59 -46 -37 0 -45 -62 -24 -20 -21 -57 8 7#1 7#0 6 5#1 5#0 4 -33 -34 -35 40 -50 -36 -47 -43 -44 -55 15 14 13 -51 -52 -53 -35 40 -50 -36 46 58 57 39 20 -25 -26#0 -26#1 -15 -56 62 61 60 59 -46 -37 -1 -60 -61 -62 -24 -20 -21 -57 8 7#1 7#0 6 5#1 5#0 4 3 -12 -51 -52 -53 -35 -41 18 17 16 13 12 11 20 24 62 61 60 59 -46 -37 -1 -60 -61 -62 -24 -20 -21 -57 -58 -59 1 0 44 29 28 27 -15 -56 -24 -20 -21 -57 -58 -59 1 37 -47 42 18 17 16 13 -51 -52 -53 -35 -41 -42 -43 -44 -45 -62 -24 -20 -21 -57 8 7#1 7#0 6 5#1 5#0 4 3 11 -21 -57 -58 -46 -47 -43 -44 -45 -62 -24 -20 -21 -57 -58 -59 1 0 -55 -56 62 45 44 29 28 27 14 13 -51 -52 -53 34 33 -4 -5#0 -5#1 -6 -7#0 -7#1 -8 57 39 20 24 62 61 60 1 37 -47 42 41 35 53 52 51"/>
    </vehicle>
    <vehicle id="ped13.0" depart="0.00" departPos="random" departSpeed="max" type="vehicle.jeep.wrangler_rubicon">
        <route edges="-12 -13 -16 -17 -18 -42 -43 -44 -55 15 14 13 12 11 20 24 23 15 14 13 12 -3 -4 -5#0 -5#1 -6 -7#0 -7#1 -8 57 39 20 24 62 45 44 29 28 27 -15 -56 62 45 44 29 28 27 -15 -56 -24 -20 -21 -57 8 7#1 7#0 6 5#1 5#0 4 -33 -34 53 -63 -64 -65 -66 -67 51 12 11 -21 -57 -58 -59 1 37 36 -32 -40 -41 18 17 16 -14 -27 -28 -29 -44 -45 61 60 59 58 57 39 -11 -3 -4 -5#0 -5#1 -6 -7#0 -7#1 -8 -58 -46 -47 42 18 17 16 13 -51 -52 -53 -35 -41 -42 -43 -44 -45 61 60 1 0 44 29 28 27 14 -16 -17 -18 -42 47 36 -32 -40 -41 -42 47 36 -32 -40 -41 18 17 16 13 -51 -52 -53 -35 -41 18 17 16 13 -51 -52 -53 34 33 -4 -5#0 -5#1 -6 -7#0 -7#1 -8 -58 -46 36 -32 -40 -41 -42 47 46 58 8 7#1 7#0 6 5#1 5#0 4 -33 -34 -35 40 -50 -36 -37 -1 59 -46 -47 42 18 17 16 -14 -15 55 -45 -62 -24 -20 -21 -57 8 7#1 7#0 6 5#1 5#0 4 3 -12 -13 -16 -17 -18 41 35 53 -63 -64 -65 -66 -67 51 12 11 -21 -57 -58 -59 -60 -61 -62 -24 -20 -21 -57 -58 -59 1 37 -47 42 18 17 16 13 -51 -52 -53 -35 -41 18 17 16 13 -51 -52 -53 -35 40 -50 -36 46 -59 1 0 -45 -62 -24 -20 -21 -57 -58 -59 -60 -61 -62 -24 -20 -21 -57 8 7#1 7#0 6 5#1 5#0 4 -33 -34 -35 40 -50 -36 46 -59 1 37 -47 -43 -44 -55 -56 62 61 60 1 37 -47 -43 -44 -45 -62 -24 -20 -21 -57 8 7#1 7#0 6 5#1 5#0 4 3 11 20 24 62 61 60 59 -46 36 -32 -40 35 53 -63 -64 -65 -66 -67 51 12 11 -21 -57 -58 -46 -37 -1 59 -46 -37 0 -55 15 26#1 26#0 25 -20 -21 -57 -58 -59 1 0 44 43 42 18 17 16 13 -51 -52 -53 -35 40 -50 -36 -47 -43 29 28 27 26#1 26#0 25 -20 -21 -57 8 7#1 7#0 6 5#1 5#0 4 -33 -34 53 -63 -64 -65 -66 -67 51 -13 -14 -15 55 -0 37 36 -32 -40 -41 18 17 16 -14 26#1 26#0 25 -20 -21 -57 8 7#1 7#0 6 5#1 5#0 4 -33 -34 53 -63 -64 -65 -66 -67 51 -13 -16 -17 -18 -42 47 -37 0 44 29 28 27 14 13 12 -3 -33 -34 -35 -41 18 17 16 13 -51 -52 -53 -35 40 -50 -36 -47 42 41 40 -50 -36 -37 0 -55 15 14 -16 -17 -18 41 35 53 -63 -64 -65 -66 -67 51 -13 -16 -17 -18 -42 -43 29 28 27 14 13 12 -3 -33 -34 -35 40 -50 -36 46 58 57 39 20 24 62 61 60 59 -46 -37 0 44 29 28 27 26#1 26#0 25 -20 -21 -57 -58 -59 -60 -61 -62 -24 -20 -21 -57 -58 -59 1 0 -55 15 -27 -28 -29 -44 -0 37 36 -32 -40 35 34 33 -4 -5#0 -5#1 -6 -7#0 -7#1 -8 57 39 20 -25 -26#0 -26#1 14 13 -51 -52 -53 34 33 -4 -5#0 -5#1 -6 -7#0 -7#1 -8 57 39 20 24 62 45 44 29 28 27 14 13 12 11 -21 -57 8 7#1 7#0 6 5#1 5#0 4 3 11 20 -25 -26#0 -26#1 14 -16 -17 -18 -42 47 46 58 57 39 -11 -3 -33 -34 -35 -41 18 17 16 13 12 11 -21 -57 8 7#1 7#0 6 5#1 5#0 4 -33 -34 53 -63 -64 -65 -66 -67 51 12 -3 -4 -5#0 -5#1 -6 -7#0 -7#1 -8 -58 -59 -60 -61 -62 -24 -20 -21 -57 -58 -59 -60 -61 -62 -24 -20 -21 -57 -58 -59 1 0 44 43 47 36 -32 -40 35 53 52 51 -13 -16 -17 -18 -42 -43 29 28 27 -15 55 -0 37 36 -32 -40 -41 -42 47 36 -32 -40 35 53 52 51 -13 -16 -17 -18 41 40 -50 -36 -37 -1 -60 -61 45 44 43 47 46 58 8 7#1 7#0 6 5#1 5#0 4 3 11 -21 -57 -58 -59 -60 -61 -62 -24 -20 -21 -57 8 7#1 7#0 6 5#1 5#0 4 -33 -34 -35 -41 18 17 16 13 12 -3 -4 -5#0 -5#1 -6 -7#0 -7#1 -8 57 39 20 24 62 61 60 59 58 8 7#1 7#0 6 5#1 5#0 4 -33 -34 53 52 51 12"/>
    </vehicle>
    <vehicle id="ped14.0" depart="0.00" departPos="random" departSpeed="max" type="vehicle.lincoln.mkz_2017">
        <route edges="-65 -66 -67 51 12 -3 -33 -34 -35 -41 18 17 16 13 -51 -52 -53 -35 -41 -42 47 36 -32 -40 35 34 33 3 11 -21 -57 8 7#1 7#0 6 5#1 5#0 4 -33 -34 -35 -41 18 17 16 13 12 11 20 24 62 45 44 29 28 27 -15 -56 62 45 -55 15 -27 -28 -29 -44 -0 37 46 58 57 39 20 24 23 55 -0 -1 -60 -61 -62 -24 -20 -21 -57 8 7#1 7#0 6 5#1 5#0 4 -33 -34 53 -63 -64 -65 -66 -67 51 12 11 -21 -57 -58 -46 -37 0 -55 15 26#1 26#0 25 -20 -21 -57 -58 -59 -60 -61 45 44 29 28 27 -15 -56 -24 -20 -21 -57 -58 -59 1 37 36 -32 -40 35 53 52 51 12 11 20 24 62 45 44 43 47 36 -32 -40 -41 -42 47 36 -32 -40 -41 -42 47 36 -32 -40 -41 -42 47 46 58 8 7#1 7#0 6 5#1 5#0 4 3 -12 -51 -52 -53 34 33 3 11 -21 -57 8 7#1 7#0 6 5#1 5#0 4 3 -12 -13 -16 -17 -18 41 40 -50 -36 -37 -1 -60 -61 45 -0 37 46 58 8 7#1 7#0 6 5#1 5#0 4 3 11 -21 -57 -58 -46 36 -32 -40 -41 -42 47 46 -59 -60 -61 -62 -24 -20 -21 -57 -58 -59 -60 -61 45 44 43 42 18 17 16 13 12 -3 -33 -34 53 52 51 12 -3 -4 -5#0 -5#1 -6 -7#0 -7#1 -8 -58 -46 -37 -1 59 -46 -37 -1 -60 -61 -62 -24 -20 -21 -57 8 7#1 7#0 6 5#1 5#0 4 -33 -34 -35 40 -50 -36 -37 -1 59 58 57 39 -11 -12 -13 -16 -17 -18 41 35 53 52 51 -13 -14 -27 -28 -29 43 47 46 58 8 7#1 7#0 6 5#1 5#0 4 -33 -34 -35 40 -50 -36 46 58 8 7#1 7#0 6 5#1 5#0 4 3 11 -21 -57 -58 -59 1 37 -47 -43 -44 -45 -62 -24 -20 -21 -57 -58 -59 -60 -61 45 44 43 42 41 40 -50 -36 -37 0 44 29 28 27 26#1 26#0 25 24 62 45 44 29 28 27 -15 -56 -24 -20 -21 -57 8 7#1 7#0 6 5#1 5#0 4 3 11 -21 -57 -58 -46 -37 -1 59 58 8 7#1 7#0 6 5#1 5#0 4 3 11 20 24 62 61 60 59 -46 -47 -43 -44 -0 -1 -60 -61 45 44 43 42 18 17 16 -14 -27 -28 -29 -44 -45 -62 -24 -20 -21 -57 -58 -46 36 -32 -40 -41 18 17 16 13 -51 -52 -53 -35 40 -50 -36 -37 -1 59 -46 -37 0 -55 -56 -24 -20 -21 -57 -58 -59 1 37 -47 42 18 17 16 13 12 11 -21 -57 8 7#1 7#0 6 5#1 5#0 4 3 -12 -51 -52 -53 34 33 -4 -5#0 -5#1 -6 -7#0 -7#1 -8 57 39 20 24 23 15 14 13 12 11 -21 -57 8 7#1 7#0 6 5#1 5#0 4 -33 -34 53 52 51 -13 -14 26#1 26#0 25 -20 -21 -57 -58 -46 -37 -1 59 -46 36 -32 -40 -41 18 17 16 -14 -27 -28 -29 -44 -55 -56 62 61 60 1 0 -55 15 26#1 26#0 25 -20 -21 -57 8 7#1 7#0 6 5#1 5#0 4 3 -12 -13 -16 -17 -18 -42 47 36 -32 -40 -41 -42 -43 -44 -0 37 -47 -43 29 28 27 -15 -56 -24 -20 -21 -57 8 7#1 7#0 6 5#1 5#0 4 3 11 20 24 62 45 -55 -56 62 45 -0 37 -47 -43 -44 -55 15 26#1 26#0 25 -20 -21 -57 8 7#1 7#0 6 5#1 5#0 4 3 -12 -13 -14 26#1 26#0 25 -20 -21 -57 8 7#1 7#0 6 5#1 5#0 4 3 11 20 -25 -26#0 -26#1 -27 -28 -29 43 47 -37 -1 -60 -61 45 -55 -56 -24 -20 -21 -57 -58 -59 -60 -61 -62 -24 -20 -21 -57 -58 -46 -37 -1 59 -46 -37 0 -55 15 26#1 26#0 25 24 62 45 -55 15 26#1 26#0 25 -20 -21 -57 -58 -59 -60 -61 -62 -24 -20 -21 -57 8 7#1 7#0 6 5#1 5#0 4 3 11 -21 -57 8 7#1 7#0 6 5#1 5#0 4 -33 -34 53 52 51 -13 -16 -17 -18 -42 -43 29 28 27 -15 -56 62 61 60 1 0 -55 -56 62 45 -55 -56 -24 -20 -21 -57 -58 -59 1 37 -47 -43 -44 -45 -62 -24 -20 -21 -57 -58 -46 -37 0 -55 -56 -24 -20 -21 -57 -58 -46 36 -32 -40 -41 -42 -43 -44 -45 61 60 1 0 -45"/>
    </vehicle>
    <vehicle id="ped15.0" depart="0.00" departPos="random" departSpeed="max" type="vehicle.lincoln.mkz_2020">
        <route edges="-32 -40 -41 18 17 16 13 -51 -52 -53 -35 40 -50 -36 46 -59 1 37 36 -32 -40 35 53 -63 -64 -65 -66 -67 51 -13 -16 -17 -18 41 40 -50 -36 -47 -43 -44 -55 15 26#1 26#0 25 24 62 61 60 1 37 36 -32 -40 35 53 52 51 12 -3 -33 -34 -35 40 -50 -36 -37 0 -55 -56 62 45 44 29 28 27 14 -16 -17 -18 41 40 -50 -36 46 58 57 39 20 24 62 45 -55 15 26#1 26#0 25 -20 -21 -57 -58 -46 -47 -43 29 28 27 14 13 -51 -52 -53 34 33 -4 -5#0 -5#1 -6 -7#0 -7#1 -8 57 39 20 24 62 45 -0 37 -47 -43 -44 -45 -62 -24 -20 -21 -57 8 7#1 7#0 6 5#1 5#0 4 -33 -34 53 -63 -64 -65 -66 -67 51 12 -3 -4 -5#0 -5#1 -6 -7#0 -7#1 -8 -58 -59 -60 -61 45 44 29 28 27 26#1 26#0 25 -20 -21 -57 8 7#1 7#0 6 5#1 5#0 4 -33 -34 53 52 51 -13 -16 -17 -18 -42 -43 29 28 27 -15 55 -45 61 60 59 -46 -47 42 18 17 16 13 -51 -52 -53 -35 40 -50 -36 46 58 8 7#1 7#0 6 5#1 5#0 4 -33 -34 53 52 51 -13 -16 -17 -18 -42 47 46 -59 1 37 -47 -43 -44 -0 -1 59 58 57 39 20 24 23 15 -27 -28 -29 -44 -55 15 14 13 -51 -52 -53 -35 40 -50 -36 46 -59 -60 -61 -62 -24 -20 -21 -57 8 7#1 7#0 6 5#1 5#0 4 3 11 -21 -57 -58 -46 -37 -1 59 58 57 39 20 24 62 45 44 43 47 36 -32 -40 -41 -42 47 46 -59 1 0 -55 15 26#1 26#0 25 24 62 61 60 59 58 57 39 20 24 62 45 44 43 47 46 -59 1 37 36 -32 -40 -41 18 17 16 -14 26#1 26#0 25 -20 -21 -57 -58 -46 -37 0 -45 -62 -24 -20 -21 -57 8 7#1 7#0 6 5#1 5#0 4 -33 -34 53 52 51 -13 -14 26#1 26#0 25 24 62 61 60 59 -46 -37 -1 59 58 8 7#1 7#0 6 5#1 5#0 4 -33 -34 -35 40 -50 -36 -37 -1 -60 -61 -62 -24 -20 -21 -57 -58 -46 -37 0 -55 15 26#1 26#0 25 -20 -21 -57 -58 -46 -37 -1 59 58 8 7#1 7#0 6 5#1 5#0 4 -33 -34 53 52 51 12 11 -21 -57 -58 -46 -37 0 -55 -56 -24 -20 -21 -57 8 7#1 7#0 6 5#1 5#0 4 3 -12 -13 -16 -17 -18 -42 47 -37 -1 -60 -61 45 -0 37 46 -59 1 37 46 -59 1 37 36 -32 -40 -41 -42 47 -37 -1 -60 -61 45 44 29 28 27 -15 55 -0 37 -47 42 18 17 16 -14 -15 -56 -24 -20 -21 -57 -58 -59 -60 -61 45 -55 -56 -24 -20 -21 -57 8 7#1 7#0 6 5#1 5#0 4 3 -12 -13 -16 -17 -18 41 35 53 -63 -64 -65 -66 -67 51 12 11 -21 -57 -58 -59 1 0 -55 15 26#1 26#0 25 -20 -21 -57 8 7#1 7#0 6 5#1 5#0 4 3 11 20 24 62 45 -0 37 -47 42 41 35 34 33 -4 -5#0 -5#1 -6 -7#0 -7#1 -8 57 39 20 24 62 45 44 29 28 27 14 13 -51 -52 -53 34 33 3 11 -21 -57 -58 -46 -37 -1 -60 -61 -62 -24 -20 -21 -57 8 7#1 7#0 6 5#1 5#0 4 3 -12 -51 -52 -53 34 33 -4 -5#0 -5#1 -6 -7#0 -7#1 -8 -58 -59 1 37 -47 42 18 17 16 13 -51 -52 -53 -35 40 -50 -36 -37 -1 -60 -61 -62 -24 -20 -21 -57 -58 -46 36 -32 -40 -41 -42 -43 29 28 27 -15 -56 62 45 44 29 28 27 -15 55 -0 37 36 -32 -40 35 34 33 -4 -5#0 -5#1 -6 -7#0 -7#1 -8 57 39 20 24 62 45 -55 15 -27 -28 -29 -44 -45 -62 -24 -20 -21 -57 -58 -46 -37 0 44 29 28 27 26#1 26#0 25 -20 -21 -57 8 7#1 7#0 6 5#1 5#0 4 -33 -34 -35 40 -50 -36 46 58 57 39 20 24 62 45 44 29 28 27 26#1 26#0 25 24 62 61 60 59 58 8 7#1 7#0 6 5#1 5#0 4 -33 -34 53 52 51 -13 -14 26#1 26#0 25 -20 -21 -57 -58 -59 -60 -61 -62 -24 -20 -21 -57 -58 -46 36 -32 -40 35 34 33 -4 -5#0 -5#1 -6 -7#0 -7#1 -8 -58 -59 -60 -61 45 44"/>
    </vehicle>
    <vehicle id="ped16.0" depart="0.00" departPos="random" departSpeed="max" type="vehicle.mercedes.coupe">
        <route edges="-40 -41 18 17 16 13 -51 -52 -53 34 33 -4 -5#0 -5#1 -6 -7#0 -7#1 -8 57 39 20 24 62 61 60 59 -46 -47 -43 29 28 27 26#1 26#0 25 -20 -21 -57 -58 -46 -47 -43 29 28 27 -15 -56 62 45 -0 37 -47 42 18 17 16 13 -51 -52 -53 34 33 -4 -5#0 -5#1 -6 -7#0 -7#1 -8 57 39 20 24 62 45 44 43 42 18 17 16 13 12 11 -21 -57 8 7#1 7#0 6 5#1 5#0 4 3 -12 -51 -52 -53 -35 40 -50 -36 46 58 8 7#1 7#0 6 5#1 5#0 4 3 -12 -13 -14 -27 -28 -29 -44 -45 -62 -24 -20 -21 -57 -58 -59 1 0 44 43 42 18 17 16 -14 -27 -28 -29 43 47 46 58 8 7#1 7#0 6 5#1 5#0 4 3 11 20 -25 -26#0 -26#1 -27 -28 -29 43 47 46 -59 -60 -61 45 44 29 28 27 14 13 12 11 20 24 23 55 -45 -62 -24 -20 -21 -57 8 7#1 7#0 6 5#1 5#0 4 3 11 20 24 62 61 60 59 -46 -37 -1 -60 -61 45 -0 37 -47 42 18 17 16 -14 -15 55 -45 61 60 59 -46 -37 -1 59 -46 -47 42 18 17 16 13 -51 -52 -53 34 33 3 -12 -51 -52 -53 -35 40 -50 -36 -37 0 44 29 28 27 -15 -56 62 61 60 1 0 -55 15 -27 -28 -29 43 47 46 -59 1 37 -47 42 18 17 16 13 -51 -52 -53 -35 40 -50 -36 46 58 57 39 20 24 62 61 60 59 58 57 39 20 -25 -26#0 -26#1 -27 -28 -29 43 42 41 35 53 52 51 -13 -14 -27 -28 -29 43 47 46 -59 1 0 -55 -56 -24 -20 -21 -57 8 7#1 7#0 6 5#1 5#0 4 -33 -34 -35 -41 -42 47 36 -32 -40 -41 18 17 16 -14 -27 -28 -29 43 42 18 17 16 -14 -15 55 -45 61 60 59 58 8 7#1 7#0 6 5#1 5#0 4 -33 -34 -35 -41 18 17 16 13 12 11 -21 -57 8 7#1 7#0 6 5#1 5#0 4 3 11 -21 -57 8 7#1 7#0 6 5#1 5#0 4 3 11 20 24 62 45 44 29 28 27 26#1 26#0 25 -20 -21 -57 8 7#1 7#0 6 5#1 5#0 4 -33 -34 -35 40 -50 -36 -47 42 18 17 16 13 12 -3 -4 -5#0 -5#1 -6 -7#0 -7#1 -8 -58 -46 -37 -1 -60 -61 45 -0 -1 59 -46 -47 42 41 40 -50 -36 -37 -1 -60 -61 45 -0 37 36 -32 -40 35 53 -63 -64 -65 -66 -67 51 -13 -14 -15 -56 62 61 60 1 37 46 58 8 7#1 7#0 6 5#1 5#0 4 -33 -34 -35 40 -50 -36 46 -59 1 0 -45 61 60 1 0 -55 -56 -24 -20 -21 -57 8 7#1 7#0 6 5#1 5#0 4 3 -12 -13 -16 -17 -18 41 40 -50 -36 46 -59 1 0 -55 -56 62 61 60 1 37 36 -32 -40 35 53 -63 -64 -65 -66 -67 51 12 -3 -4 -5#0 -5#1 -6 -7#0 -7#1 -8 -58 -46 -47 42 18 17 16 -14 26#1 26#0 25 -20 -21 -57 8 7#1 7#0 6 5#1 5#0 4 3 11 -21 -57 -58 -46 36 -32 -40 -41 -42 47 -37 -1 59 58 8 7#1 7#0 6 5#1 5#0 4 3 -12 -13 -16 -17 -18 -42 47 36 -32 -40 35 53 52 51 -13 -16 -17 -18 41 40 -50 -36 -47 42 18 17 16 13 12 11 -21 -57 -58 -59 1 37 -47 42 18 17 16 -14 26#1 26#0 25 -20 -21 -57 8 7#1 7#0 6 5#1 5#0 4 3 -12 -13 -14 -27 -28 -29 -44 -55 15 14 -16 -17 -18 41 40 -50 -36 46 -59 1 37 -47 42 18 17 16 13 -51 -52 -53 -35 40 -50 -36 46 -59 1 37 36 -32 -40 35 53 52 51 12 -3 -33 -34 -35 -41 18 17 16 -14 26#1 26#0 25 -20 -21 -57 8 7#1 7#0 6 5#1 5#0 4 3 11 -21 -57 8 7#1 7#0 6 5#1 5#0 4 3 11 -21 -57 8 7#1 7#0 6 5#1 5#0 4 3 11 20 24 62 61 60 59 58 57 39 20 24 62 45 -55 -56 -24 -20 -21 -57 8 7#1 7#0 6 5#1 5#0 4 -33 -34 53 52 51 12 11 20 24 62 61 60 59 -46 -37 -1 -60 -61 45 -0 37 46 58 57 39 20 24 62 45 -55 -56 -24 -20 -21 -57 8 7#1 7#0 6 5#1 5#0 4"/>
    </vehicle>
    <vehicle id="ped17.0" depart="0.00" departPos="random" departSpeed="max" type="vehicle.mercedes.coupe_2020">