<?xml version='1.0' encoding='UTF-8'?>
<!-- generated on 2023-11-13 17:08:35 by Eclipse SUMO jtrrouter Version 1.18.0
<configuration xmlns:xsi="http://www.w3.org/2001/XMLSchema-instance" xsi:noNamespaceSchemaLocation="http://sumo.dlr.de/xsd/jtrrouterConfiguration.xsd">

    <input>
        <net-file value="/home/lrs/scripts/V2X-TSG/data_collection/data/jtrrccfg/../net/Town03.net.xml"/>
        <route-files value="/home/lrs/scripts/V2X-TSG/data_collection/data/jtrrccfg/../rou/Town03_veh.flows.xml"/>
        <turn-ratio-files value="/home/lrs/scripts/V2X-TSG/data_collection/data/jtrrccfg/../turn/Town03.turns.xml"/>
    </input>

    <output>
        <output-file value="/home/lrs/scripts/V2X-TSG/data_collection/data/jtrrccfg/../rou/Town03_veh.rou.xml"/>
    </output>

    <processing>
        <turn-defaults value="25,50,25"/>
        <accept-all-destinations value="true"/>
        <allow-loops value="true"/>
    </processing>

    <report>
        <verbose value="true"/>
    </report>

</configuration>
-->
<routes xmlns:xsi="http://www.w3.org/2001/XMLSchema-instance" xsi:noNamespaceSchemaLocation="http://sumo.dlr.de/xsd/routes_file.xsd">
    <vehicle id="veh0.0" depart="0.00" departPos="random" departSpeed="max" type="vehicle.audi.a2">
        <route edges="-12 -13 16 -30 24 4 3 19 18 -42 -43 -8 34 15 -28 18 -42 -43 -8 34 -36 -38 -12 -13 16 -30 -76 -77 -78#0 -78#1 -79 -80 47 66 65 -0 -1 29 -19 -20 -21 -22 -23 69 68 67 66 65 -0 -1 29 -19 2 29 18 41 0 -73 -17 -18 28 -25 -61 -62 20 -3 -44 -22 -23 -24 30 -10 -11 -36 -38 -12 -13 -14 -10 46 8 7 6 -66 -67 33 31 -76 -77 -78#0 -78#1 -79 -80 47 -67 -68 -69 4 -44 21 20 -3 -62 -21 -22 -23 69 68 67 66 65 -0 -1 29 -19 2 1 -41 -42 -43 -8 34 15 -28 18 41 0 -73 -17 41 0 -73 -17 41 0 -65 -5 75 74 -17 41 0 -65 -5 -7 -8 34 15 -28 -29 1 -41 -18 -29 1 -41 17 -74 -75 -7 43 42 -18 28 -25 -61 3 -20 62 -44 -22 -23 -24 -31 -32 -68 -69 4 61 -13 -14 -10 -11 15 -28 -29 1 0 -73 -17 41 0 -65 -66 -47 -48 -49 -50#0 -50#1 -51 -52 -81 -60 52 51 50#1 50#0 49 48 80 79 78#1 78#0 77 76 24 4 61 -13 16 -30 24 23 22 21 62 3 -20 -21 -22 -23 -24 -76 -77 -78#0 -78#1 -79 -80 47 66 65 -0 -1 29 28 -25 -38 -12 -13 16 -30 -31 -58 -69 4 -62 20 -3 -44 21 20 -3 61 -13 -14 -10 -11 15 -28 -19 -3 -44 21 62 -4 23 22 21 62 -4 -24 -31 -58 -69 4 3 19 -29 -2 19 18 41 0 -73 -74 -59 -43 -8 34 15 -28 -19 -3 -44 21 20 2 29 -19 -20 62 -44 21 62 3 2 1 0 -73 -74 -59 -43 -8 34 15 -28 -19 2 1 -41 -18 28 -25 -38 -12 -13 -14 -10 -11 15 -28 -19 -3 -4 -24 -76 -77 -78#0 -78#1 -79 -80 47 -67 -68 -69 23 22 21 62 -4 69 68 67 66 65 -0 -1 29 28 -25 -38 -12 -13 16 -30 -31 -32 -68 -69 4 -62 -21 -22 -23 4 -44 21 20 -3 -44 -22 -23 69 68 67 -47 -48 -49 -50#0 -50#1 -51 -52 -81 -60 52 51 50#1 50#0 49 48 80 79 78#1 78#0 77 76 24 69 68 67 66 65 -0 -1 -2 -3 -62 -21 -22 -23 -24 -31 -32 -68 -69 4 61 -13 16 -30 24 69 68 67 66 65 -0 -1 29 -19 2 1 -41 -18 -19 2 29 -19 2 1 -41 -18 -29 1 -41 17 -74 -75 -7 -8 34 -36 -38 -12 -13 16 -30 -76 -77 -78#0 -78#1 -79 -80 -48 -49 -50#0 -50#1 -51 -52 -81 -60 52 51 50#1 50#0 49 48 80 79 78#1 78#0 77 76 24 4 3 19 28 -25 -38 -12 -13 16 -30 -76 -77 -78#0 -78#1 -79 -80 47 66 65 -0 -1 29 28 -25 -38 -12 -13 16 -30 24 69 68 67 66 65 -0 -1 -2 -20 -21 -22 -23 69 68 67 66 65 -0 -1 29 18 -42 -43 -8 34 15 -28 18 17 73 -65 -5 -7 -8 34 15 -28 18 41 0 -73 -74 -75 -7 43 42 41 0 -65 -5 75 -59 -43 -8 34 -36 -38 -12 -13 16 -30 -76 -77 -78#0 -78#1 -79 -80 47 66 65 -0 -1 -2 -20 -21 -22 -23 4 61 -13 -14 -10 46 8 7 6 -66 -67 -68 -69 23 22 21 62 -44 21 62 -4 69 68 67 66 65 -0 -1 29 -19 2 1 -41 -18 -19 -20 62 -4 69 68 67 -47 -48 -49 -50#0 -50#1 -51 -52 -81 -60 52 51 50#1 50#0 49 48 47 -67 33 31 24 4 3 19 18 -42 -43 -8 34 -36 -38 -12 -13 16 -30 -76 -77 -78#0 -78#1 -79 -80 47 -67 33 31 -76 -77 -78#0 -78#1 -79 -80 47 -67 33 31 -76 -77 -78#0 -78#1 -79 -80 -48 -49 -50#0 -50#1 -51 -52 -81 -60 52 51 50#1 50#0 49 48 80 79 78#1 78#0 77 76 30 -10 -11 15 -28 18 17 73 -65 -66 -67 33 31 -76 -77 -78#0 -78#1 -79 -80 -48 -49 -50#0 -50#1 -51 -52 -81 -60 52 51 50#1 50#0 49 48 80 79 78#1 78#0 77 76 24 4 61 -13 16 -30 -76 -77 -78#0 -78#1 -79 -80 47 -67 33 31 -76 -77 -78#0 -78#1 -79 -80 -48 -49 -50#0 -50#1 -51 -52 -81 -60 52 51 50#1 50#0 49 48 80 79 78#1 78#0 77 76 30 -10 -11 -36 -38 -12 -13 16 -30 -31 -32 -68 -69 4 -44 21 62 61 -13 16 -30 24 4 -62 20 19 28 -25 -38 -12 -13 16 -30 24 4 61 -13 16 -30 24 4 61 -13 16 -30 -76 -77 -78#0 -78#1 -79 -80 47 -67 33 31 30 -10 46 8 7 6 -66 -67 -68 -69 -24 -76 -77 -78#0 -78#1 -79 -80 -48 -49 -50#0 -50#1 -51 -52 -81"/>
    </vehicle>
    <vehicle id="veh1.0" depart="0.00" departPos="random" departSpeed="max" type="vehicle.audi.tt">
        <route edges="-25 -61 -44 21 20 -3 -4 -24 -31 -32 -68 -69 -24 -31 -58 -69 4 -44 21 20 -3 -44 21 20 -3 -44 21 62 3 -20 -21 -22 -23 -24 30 -10 -11 15 -28 -29 -2 19 -29 1 -41 -18 -29 1 -41 17 -74 -75 -7 43 42 -18 -29 1 0 -65 -66 -67 -68 -69 4 61 -13 16 -30 24 4 -62 20 -3 61 -13 -14 -10 -11 15 -28 -19 2 1 0 -65 -66 -47 80 79 78#1 78#0 77 76 30 -10 46 8 7 6 -66 -67 -68 -69 4 3 -20 -21 -22 -23 69 68 67 66 65 -0 -1 -2 -20 -21 -22 -23 -24 -76 -77 -78#0 -78#1 -79 -80 -48 -49 -50#0 -50#1 -51 -52 -81 -60 52 51 50#1 50#0 49 48 80 79 78#1 78#0 77 76 30 -10 46 8 7 6 -66 -67 -68 -69 4 -62 -21 -22 -23 4 -62 -21 -22 -23 69 68 67 66 65 -0 -1 29 18 17 73 -65 -66 -67 -68 -69 4 61 -13 -14 -10 46 8 7 6 -66 -67 -68 -69 23 22 21 62 -4 69 68 67 66 65 -0 -1 -2 19 -29 -2 -20 62 -4 23 22 21 62 -4 23 22 21 62 -4 23 22 21 20 -3 -4 -24 -31 -58 -69 4 -44 21 62 -4 -24 -31 -32 -68 -69 4 3 2 29 18 17 73 -65 -5 -7 -8 34 -36 -38 -12 -13 16 -30 24 23 22 21 62 -4 23 22 21 20 -3 -44 21 20 -3 -44 21 62 3 19 28 -25 -38 -12 -13 16 -30 -76 -77 -78#0 -78#1 -79 -80 47 66 65 -0 -1 -2 19 18 -42 -43 -8 34 -36 -38 -12 -13 16 -30 -31 -32 -68 -69 -24 -76 -77 -78#0 -78#1 -79 -80 47 -67 33 31 30 -10 46 8 7 6 -66 -67 33 31 24 23 22 21 62 61 -13 16 -30 -31 -32 -68 -69 -24 -76 -77 -78#0 -78#1 -79 -80 -48 -49 -50#0 -50#1 -51 -52 -81 -60 52 51 50#1 50#0 49 48 47 66 65 -0 -1 -2 -3 -62 20 2 29 -19 2 1 -41 -18 -29 1 0 -73 -17 41 0 -73 -74 -59 -43 -8 34 15 -28 18 -42 -43 -8 34 15 -28 -29 -2 -3 -4 69 68 67 66 65 -0 -1 -2 -20 62 -44 -22 -23 69 68 67 -47 80 79 78#1 78#0 77 76 24 69 68 67 66 65 -0 -1 29 -19 2 1 0 -73 -74 -59 -43 -8 34 -36 -38 -12 -13 16 -30 24 4 61 -13 -14 -10 46 8 7 6 -66 -47 80 79 78#1 78#0 77 76 24 4 61 -13 -14 -10 46 8 7 6 -66 -67 33 31 -76 -77 -78#0 -78#1 -79 -80 47 -67 -68 -69 23 22 21 20 -3 -4 23 22 21 62 -44 -22 -23 -24 -76 -77 -78#0 -78#1 -79 -80 -48 -49 -50#0 -50#1 -51 -52 -81 -60 52 51 50#1 50#0 49 48 47 66 65 -0 -1 29 -19 -20 -21 -22 -23 4 -62 20 -3 -44 21 62 -44 21 62 61 -13 16 -30 24 69 68 67 66 65 -0 -1 29 -19 -20 -21 -22 -23 -24 -31 -32 -68 -69 23 22 21 62 61 -13 -14 -10 -11 -36 -38 -12 -13 16 -30 24 4 3 2 1 0 -73 -17 41 0 -65 -66 -67 33 31 -76 -77 -78#0 -78#1 -79 -80 -48 -49 -50#0 -50#1 -51 -52 -81 -60 52 51 50#1 50#0 49 48 80 79 78#1 78#0 77 76 24 69 68 67 -47 -48 -49 -50#0 -50#1 -51 -52 -81 -60 52 51 50#1 50#0 49 48 80 79 78#1 78#0 77 76 30 -10 46 8 7 6 -66 -47 -48 -49 -50#0 -50#1 -51 -52 -81 -60 52 51 50#1 50#0 49 48 80 79 78#1 78#0 77 76 -31 -32 -68 -69 -24 -76 -77 -78#0 -78#1 -79 -80 47 -67 -68 -69 -24 30 -10 46 8 7 6 -66 -67 -68 -69 4 -44 21 62 3 19 18 -42 -43 -8 34 15 -28 18 17 73 -65 -66 -67 -68 -69 4 -62 -21 -22 -23 -24 -76 -77 -78#0 -78#1 -79 -80 -48 -49 -50#0 -50#1 -51 -52 -81 -60 52 51 50#1 50#0 49 48 47 -67 33 31 -76 -77 -78#0 -78#1 -79 -80 -48 -49 -50#0 -50#1 -51 -52 -81 -60 52 51 50#1 50#0 49 48 47 -67 33 31 -76 -77 -78#0 -78#1 -79 -80 47 66 65 -0 -1 29 28 -25 -38 -12 -13 16 -30 -76 -77 -78#0 -78#1 -79 -80 47 -67 33 31 30 -10 46 8 7 6 -66 -67 -68 -69 -24 -76 -77 -78#0 -78#1 -79 -80 47 -67 -68 -69 23 22 21 62 -4 69 68 67 66 65 -0 -1 29 28 -25 -38 -12 -13 16 -30 -31 -32 -68 -69 4 -44 21 20 -3 -44 -22 -23 69 68 67 -47 -48 -49 -50#0 -50#1 -51 -52 -81 -60 52 51 50#1"/>
    </vehicle>
    <vehicle id="veh10.0" depart="0.00" departPos="random" departSpeed="max" type="vehicle.bmw.grandtourer">
        <route edges="-8 34 15 -28 -19 -3 -4 69 68 67 66 65 -0 -1 -2 -20 -21 -22 -23 -24 -76 -77 -78#0 -78#1 -79 -80 47 -67 -68 -69 4 3 2 29 -19 -20 -21 -22 -23 4 -62 -21 -22 -23 69 68 67 66 65 -0 -1 -2 -20 62 61 -13 16 -30 -31 -32 -68 -69 -24 -76 -77 -78#0 -78#1 -79 -80 -48 -49 -50#0 -50#1 -51 -52 -81 -60 52 51 50#1 50#0 49 48 80 79 78#1 78#0 77 76 24 4 -62 -21 -22 -23 69 68 67 66 65 -0 -1 29 18 41 0 -73 -17 41 0 -73 -17 -18 -29 -2 -20 62 -4 -24 -76 -77 -78#0 -78#1 -79 -80 47 66 65 -0 -1 29 -19 -3 -62 20 2 29 -19 2 29 28 -25 -38 -12 -13 16 -30 -76 -77 -78#0 -78#1 -79 -80 47 -67 33 31 -76 -77 -78#0 -78#1 -79 -80 -48 -49 -50#0 -50#1 -51 -52 -81 -60 52 51 50#1 50#0 49 48 47 -67 -68 -69 4 3 2 29 -19 -20 -21 -22 -23 4 61 -13 -14 -10 46 8 7 6 -66 -67 -68 -69 4 3 19 28 -25 -61 -4 69 68 67 -47 -48 -49 -50#0 -50#1 -51 -52 -81 -60 52 51 50#1 50#0 49 48 80 79 78#1 78#0 77 76 24 69 68 67 -47 80 79 78#1 78#0 77 76 24 69 68 67 66 65 -0 -1 -2 -20 62 -4 69 68 67 66 65 -0 -1 -2 -20 62 -44 -22 -23 -24 -76 -77 -78#0 -78#1 -79 -80 47 -67 -68 -69 23 22 21 62 -44 21 20 -3 -4 -24 30 -10 46 8 7 6 -66 -67 -68 -69 4 3 19 28 -25 -38 -12 -13 16 -30 24 69 68 67 -47 80 79 78#1 78#0 77 76 24 23 22 21 20 2 29 -19 -20 62 -44 -22 -23 69 68 67 66 65 -0 -1 29 -19 -20 62 -4 69 68 67 66 65 -0 -1 29 -19 2 1 -41 -18 -19 -3 61 -13 16 -30 -76 -77 -78#0 -78#1 -79 -80 -48 -49 -50#0 -50#1 -51 -52 -81 -60 52 51 50#1 50#0 49 48 47 66 65 -0 -1 29 -19 2 29 -19 -3 -62 20 -3 -62 20 2 29 -19 -20 62 3 19 28 -25 -61 -4 -24 30 -10 46 8 7 6 -66 -47 -48 -49 -50#0 -50#1 -51 -52 -81 -60 52 51 50#1 50#0 49 48 80 79 78#1 78#0 77 76 -31 -32 -68 -69 4 -62 20 -3 -62 -21 -22 -23 69 68 67 66 65 -0 -1 -2 -20 -21 -22 -23 4 -44 -22 -23 4 -44 -22 -23 -24 -31 -32 -68 -69 4 61 -13 16 -30 -76 -77 -78#0 -78#1 -79 -80 -48 -49 -50#0 -50#1 -51 -52 -81 -60 52 51 50#1 50#0 49 48 47 66 65 -0 -1 -2 19 -29 -2 -20 -21 -22 -23 69 68 67 66 65 -0 -1 -2 -20 -21 -22 -23 -24 -76 -77 -78#0 -78#1 -79 -80 -48 -49 -50#0 -50#1 -51 -52 -81 -60 52 51 50#1 50#0 49 48 80 79 78#1 78#0 77 76 24 23 22 21 20 2 29 -19 -3 -4 23 22 21 62 61 -13 16 -30 24 4 61 -13 16 -30 24 23 22 21 20 19 -29 1 0 -73 -74 -59 42 41 0 -65 -5 75 74 73 -65 -66 -67 -68 -69 4 61 -13 16 -30 -31 -58 -69 23 22 21 20 -3 61 -13 16 -30 -76 -77 -78#0 -78#1 -79 -80 -48 -49 -50#0 -50#1 -51 -52 -81 -60 52 51 50#1 50#0 49 48 80 79 78#1 78#0 77 76 24 4 3 19 28 -25 -61 3 19 18 17 73 -65 -5 75 74 -17 -42 -43 -8 34 -36 -38 -12 -13 16 -30 24 69 68 67 66 65 -0 -1 -2 -3 61 -13 16 -30 -76 -77 -78#0 -78#1 -79 -80 -48 -49 -50#0 -50#1 -51 -52 -81 -60 52 51 50#1 50#0 49 48 80 79 78#1 78#0 77 76 -31 -32 -68 -69 23 22 21 20 2 29 18 -42 -43 -8 34 15 -28 18 41 0 -65 -66 -67 33 31 24 69 68 67 66 65 -0 -1 29 18 17 -74 -75 -7 43 42 17 73 -65 -66 -47 -48 -49 -50#0 -50#1 -51 -52 -81 -60 52 51 50#1 50#0 49 48 80 79 78#1 78#0 77 76 24 4 -62 -21 -22 -23 4 -44 -22 -23 -24 -31 -58 -69 4 3 19 28 -25 -38 -12 -13 16 -30 24 4 -62 20 -3 -44 -22 -23 69 68 67 66 65 -0 -1 -2 -3 -62 -21 -22 -23 -24 30 -10 -11 15 -28 18 17 -74 -75 -7 43 42 -18 -29 -2 -20 62 -44 -22 -23 -24 -31 -58 -69 -24 -76 -77 -78#0 -78#1 -79 -80 -48 -49 -50#0 -50#1 -51 -52 -81 -60 52 51 50#1 50#0 49 48 80 79 78#1 78#0 77 76 -31 -32 -68 -69 4 3 19 28 -25 -61 3 19 28 -25"/>
    </vehicle>
    <vehicle id="veh100.0" depart="0.00" departPos="random" departSpeed="max" type="vehicle.chevrolet.impala">
        <route edges="-41 17 73 -65 -66 -47 80 79 78#1 78#0 77 76 30 -10 46 8 7 6 -66 -67 -68 -69 23 22 21 20 -3 -4 69 68 67 66 65 -0 -1 -2 -20 -21 -22 -23 69 68 67 66 65 -0 -1 -2 19 28 -25 -38 -12 -13 16 -30 -31 -32 -68 -69 4 -44 21 62 -44 -22 -23 69 68 67 66 65 -0 -1 29 -19 -3 -62 -21 -22 -23 69 68 67 66 65 -0 -1 -2 -20 -21 -22 -23 69 68 67 -47 80 79 78#1 78#0 77 76 24 23 22 21 62 -44 -22 -23 -24 -31 -32 -68 -69 23 22 21 62 -44 -22 -23 69 68 67 66 65 -0 -1 29 18 -42 -43 -8 34 15 -28 -19 -20 62 -4 69 68 67 66 65 -0 -1 -2 19 28 -25 -38 -12 -13 16 -30 -31 -32 -68 -69 -24 -31 -58 -69 -24 -76 -77 -78#0 -78#1 -79 -80 -48 -49 -50#0 -50#1 -51 -52 -81 -60 52 51 50#1 50#0 49 48 47 66 65 -0 -1 29 18 17 -74 -75 -7 -8 34 -36 -38 -12 -13 16 -30 24 4 -44 -22 -23 69 68 67 66 65 -0 -1 -2 -3 61 -13 16 -30 -76 -77 -78#0 -78#1 -79 -80 -48 -49 -50#0 -50#1 -51 -52 -81 -60 52 51 50#1 50#0 49 48 80 79 78#1 78#0 77 76 30 -10 -11 15 -28 18 17 -74 -75 -7 -8 34 15 -28 -29 -2 -3 -62 -21 -22 -23 69 68 67 66 65 -0 -1 29 -19 2 1 -41 -42 -43 -8 34 15 -28 -19 2 1 0 -65 -66 -47 -48 -49 -50#0 -50#1 -51 -52 -81 -60 52 51 50#1 50#0 49 48 47 -67 -68 -69 4 3 2 1 0 -73 -17 41 0 -65 -66 -67 33 31 30 -10 -11 15 -28 18 -42 -43 -8 34 -36 -38 -12 -13 16 -30 24 4 -62 20 -3 -44 -22 -23 4 -44 21 62 -44 -22 -23 4 61 -13 16 -30 24 69 68 67 66 65 -0 -1 29 -19 -20 -21 -22 -23 -24 -31 -32 -68 -69 -24 -76 -77 -78#0 -78#1 -79 -80 -48 -49 -50#0 -50#1 -51 -52 -81 -60 52 51 50#1 50#0 49 48 47 -67 33 31 30 -10 46 8 7 6 -66 -47 -48 -49 -50#0 -50#1 -51 -52 -81 -60 52 51 50#1 50#0 49 48 80 79 78#1 78#0 77 76 -31 -32 -68 -69 4 -44 -22 -23 69 68 67 66 65 -0 -1 -2 -3 61 -13 16 -30 -76 -77 -78#0 -78#1 -79 -80 -48 -49 -50#0 -50#1 -51 -52 -81 -60 52 51 50#1 50#0 49 48 47 66 65 -0 -1 29 -19 2 29 18 -42 -43 -8 34 15 -28 18 -42 -43 -8 34 15 -28 -29 -2 19 18 17 -74 -59 -43 -8 34 -36 -38 -12 -13 16 -30 -76 -77 -78#0 -78#1 -79 -80 47 -67 -68 -69 -24 -76 -77 -78#0 -78#1 -79 -80 47 66 65 -0 -1 29 18 -42 -43 -8 34 -36 -38 -12 -13 16 -30 -31 -32 -68 -69 -24 -31 -58 -69 4 -62 20 19 -29 1 -41 -42 -43 -8 34 -36 -38 -12 -13 -14 -10 -11 -36 -38 -12 -13 -14 -10 46 8 7 6 -66 -67 -68 -69 4 -44 -22 -23 4 61 -13 16 -30 -31 -32 -68 -69 23 22 21 20 2 29 18 -42 -43 -8 34 15 -28 -19 -3 61 -13 16 -30 24 69 68 67 66 65 -0 -1 -2 -20 -21 -22 -23 69 68 67 66 65 -0 -1 -2 -20 62 -4 -24 -76 -77 -78#0 -78#1 -79 -80 47 66 65 -0 -1 29 -19 -3 61 -13 16 -30 -31 -58 -69 23 22 21 62 61 -13 16 -30 -31 -58 -69 4 61 -13 -14 -10 -11 15 -28 18 -42 -43 -8 34 -36 -38 -12 -13 16 -30 24 23 22 21 20 -3 -62 20 -3 -44 -22 -23 4 3 19 -29 1 -41 -42 -43 -8 34 15 -28 18 -42 -43 -8 34 -36 -38 -12 -13 -14 -10 46 8 7 6 -66 -67 33 31 -76 -77 -78#0 -78#1 -79 -80 47 -67 -68 -69 23 22 21 62 61 -13 16 -30 -31 -32 -68 -69 23 22 21 62 -4 -24 30 -10 46 8 7 6 -66 -47 -48 -49 -50#0 -50#1 -51 -52 -81 -60 52 51 50#1 50#0 49 48 80 79 78#1 78#0 77 76 24 4 61 -13 16 -30 24 4 -44 21 62 -44 -22 -23 69 68 67 66 65 -0 -1 -2 19 28 -25 -61 3 19 28 -25 -61 -44 21 62 -44 -22 -23 4 3 -20 -21 -22 -23 4 -62 20 19 28 -25 -61 -4 23 22 21 20 -3 -4 -24 30 -10 46 8 7 6 -66 -67 33 31 30 -10 -11 15 -28 -29 1 -41 -18 28 -25 -61 -44 21 62 -44 -22 -23 -24 -76 -77 -78#0 -78#1 -79 -80 47 -67"/>
    </vehicle>
    <vehicle id="veh101.0" depart="0.00" departPos="random" departSpeed="max" type="vehicle.citroen.c3">
        <route edges="-62 -21 -22 -23 69 68 67 66 65 -0 -1 29 28 -25 -61 -4 -24 -31 -58 -69 23 22 21 20 -3 -62 20 2 29 -19 2 29 18 41 0 -65 -66 -67 33 31 24 69 68 67 66 65 -0 -1 -2 -20 62 61 -13 -14 -10 -11 15 -28 -19 -3 -44 -22 -23 69 68 67 66 65 -0 -1 29 18 17 -74 -59 42 17 -74 -59 -43 -8 34 15 -28 -19 -3 -4 -24 30 -10 46 8 7 6 -66 -67 33 31 -76 -77 -78#0 -78#1 -79 -80 47 66 65 -0 -1 29 18 -42 -43 -8 34 -36 -38 -12 -13 16 -30 -31 -58 -69 23 22 21 62 -4 23 22 21 20 19 28 -25 -61 3 19 28 -25 -61 -62 -21 -22 -23 69 68 67 66 65 -0 -1 -2 -3 -4 69 68 67 -47 -48 -49 -50#0 -50#1 -51 -52 -81 -60 52 51 50#1 50#0 49 48 80 79 78#1 78#0 77 76 -31 -58 -69 -24 -76 -77 -78#0 -78#1 -79 -80 47 66 65 -0 -1 -2 19 28 -25 -61 -62 20 19 18 17 73 -65 -5 -7 -8 34 -36 -38 -12 -13 16 -30 -31 -58 -69 4 61 -13 16 -30 -76 -77 -78#0 -78#1 -79 -80 -48 -49 -50#0 -50#1 -51 -52 -81 -60 52 51 50#1 50#0 49 48 80 79 78#1 78#0 77 76 24 4 -62 20 2 29 -19 2 29 18 41 0 -65 -5 75 74 -17 41 0 -65 -66 -67 33 31 30 -10 -11 15 -28 18 -42 -43 -8 34 15 -28 18 17 73 -65 -5 -7 43 42 41 0 -65 -5 75 74 -17 41 0 -73 -17 -18 -29 1 -41 -18 -19 2 29 28 -25 -38 -12 -13 16 -30 24 4 -44 21 20 2 29 -19 2 29 -19 -3 -4 69 68 67 66 65 -0 -1 -2 19 18 -42 -43 -8 34 15 -28 -29 -2 -20 62 -44 -22 -23 4 3 -20 62 -4 69 68 67 66 65 -0 -1 -2 19 18 17 73 -65 -66 -47 -48 -49 -50#0 -50#1 -51 -52 -81 -60 52 51 50#1 50#0 49 48 80 79 78#1 78#0 77 76 24 69 68 67 66 65 -0 -1 29 -19 -3 -44 21 20 -3 -44 -22 -23 4 3 2 1 0 -65 -66 -67 -68 -69 23 22 21 20 2 1 -41 -42 -43 -8 34 -36 -38 -12 -13 16 -30 24 69 68 67 66 65 -0 -1 -2 -20 62 -44 21 62 -4 23 22 21 62 -4 69 68 67 66 65 -0 -1 -2 19 18 41 0 -73 -17 -18 -29 1 -41 -18 -29 1 -41 17 -74 -75 -7 -8 34 15 -28 -19 -20 62 -4 23 22 21 20 -3 61 -13 -14 -10 46 8 7 6 -66 -67 33 31 30 -10 46 8 7 6 -66 -67 -68 -69 4 -62 20 2 29 28 -25 -38 -12 -13 16 -30 24 23 22 21 62 61 -13 16 -30 24 69 68 67 -47 -48 -49 -50#0 -50#1 -51 -52 -81 -60 52 51 50#1 50#0 49 48 47 -67 -68 -69 -24 -76 -77 -78#0 -78#1 -79 -80 47 -67 33 31 24 4 -44 -22 -23 -24 -76 -77 -78#0 -78#1 -79 -80 47 -67 33 31 30 -10 46 8 7 6 -66 -67 -68 -69 4 61 -13 16 -30 -76 -77 -78#0 -78#1 -79 -80 -48 -49 -50#0 -50#1 -51 -52 -81 -60 52 51 50#1 50#0 49 48 80 79 78#1 78#0 77 76 -31 -58 -69 23 22 21 62 -44 -22 -23 69 68 67 -47 80 79 78#1 78#0 77 76 24 4 -62 20 19 28 -25 -38 -12 -13 16 -30 -76 -77 -78#0 -78#1 -79 -80 47 -67 -68 -69 23 22 21 20 2 1 -41 17 73 -65 -5 75 -59 42 17 73 -65 -66 -67 -68 -69 4 61 -13 16 -30 24 69 68 67 66 65 -0 -1 -2 -20 62 -4 -24 -76 -77 -78#0 -78#1 -79 -80 -48 -49 -50#0 -50#1 -51 -52 -81 -60 52 51 50#1 50#0 49 48 47 -67 33 31 30 -10 -11 15 -28 18 -42 -43 -8 34 -36 -38 -12 -13 16 -30 -76 -77 -78#0 -78#1 -79 -80 47 -67 33 31 -76 -77 -78#0 -78#1 -79 -80 47 -67 33 31 -76 -77 -78#0 -78#1 -79 -80 -48 -49 -50#0 -50#1 -51 -52 -81 -60 52 51 50#1 50#0 49 48 80 79 78#1 78#0 77 76 30 -10 46 8 7 6 -66 -67 33 31 24 23 22 21 20 2 29 -19 2 1 0 -65 -5 -7 43 42 -18 -29 -2 -20 -21 -22 -23 4 -62 -21 -22 -23 69 68 67 66 65 -0 -1 29 18 41 0 -73 -74 -75 -7 43 42 41 0 -73 -17 41 0 -73 -74 -75 -7 -8 34 -36 -38 -12 -13 -14 -10 46 8 7 6 -66 -67 33 31 24 4 61 -13 -14 -10 46 8 7"/>
    </vehicle>
    <vehicle id="veh102.0" depart="0.00" departPos="random" departSpeed="max" type="vehicle.jeep.wrangler_rubicon">
        <route edges="-42 -43 -8 34 -36 -38 -12 -13 16 -30 -31 -58 -69 4 -62 20 19 -29 -2 19 28 -25 -61 -4 -24 30 -10 -11 15 -28 18 -42 -43 -8 34 15 -28 -29 -2 -3 -62 -21 -22 -23 -24 -31 -58 -69 4 61 -13 16 -30 24 23 22 21 62 -44 21 62 3 2 1 -41 -18 -29 1 -41 -18 28 -25 -61 3 2 29 -19 2 29 -19 -3 -44 21 62 -4 -24 -31 -32 -68 -69 23 22 21 62 61 -13 -14 -10 46 8 7 6 -66 -67 -68 -69 4 3 19 18 -42 -43 -8 34 -36 -38 -12 -13 16 -30 -76 -77 -78#0 -78#1 -79 -80 47 66 65 -0 -1 -2 -20 62 -44 21 20 -3 61 -13 16 -30 24 4 -62 20 19 18 -42 -43 -8 34 15 -28 18 17 -74 -75 -7 -8 34 15 -28 -19 -3 -62 -21 -22 -23 69 68 67 66 65 -0 -1 29 -19 2 29 -19 2 29 28 -25 -61 -4 -24 -31 -58 -69 4 3 19 18 41 0 -73 -17 -42 -43 -8 34 15 -28 -29 -2 -20 -21 -22 -23 -24 -76 -77 -78#0 -78#1 -79 -80 47 66 65 -0 -1 29 18 -42 -43 -8 34 15 -28 18 17 -74 -59 -43 -8 34 15 -28 -29 -2 -3 -4 69 68 67 -47 80 79 78#1 78#0 77 76 24 4 -44 -22 -23 4 -62 -21 -22 -23 -24 -31 -32 -68 -69 4 -62 20 -3 -62 20 2 29 -19 2 29 -19 -20 -21 -22 -23 69 68 67 66 65 -0 -1 -2 -20 62 3 19 28 -25 -38 -12 -13 -14 -10 -11 15 -28 18 -42 -43 -8 34 15 -28 -19 2 1 -41 -42 -43 -8 34 15 -28 18 41 0 -73 -74 -75 -7 -8 34 -36 -38 -12 -13 16 -30 24 4 61 -13 16 -30 -31 -58 -69 -24 -76 -77 -78#0 -78#1 -79 -80 -48 -49 -50#0 -50#1 -51 -52 -81 -60 52 51 50#1 50#0 49 48 47 66 65 -0 -1 -2 -3 -4 69 68 67 66 65 -0 -1 -2 19 28 -25 -38 -12 -13 16 -30 24 69 68 67 66 65 -0 -1 29 18 -42 -43 -8 34 15 -28 18 -42 -43 -8 34 -36 -38 -12 -13 16 -30 -31 -58 -69 -24 -31 -58 -69 -24 -31 -58 -69 23 22 21 62 3 2 29 28 -25 -38 -12 -13 16 -30 -76 -77 -78#0 -78#1 -79 -80 47 66 65 -0 -1 29 -19 2 1 0 -65 -5 -7 43 42 17 73 -65 -66 -67 -68 -69 -24 -31 -58 -69 23 22 21 62 -4 69 68 67 -47 -48 -49 -50#0 -50#1 -51 -52 -81 -60 52 51 50#1 50#0 49 48 80 79 78#1 78#0 77 76 30 -10 46 8 7 6 -66 -47 -48 -49 -50#0 -50#1 -51 -52 -81 -60 52 51 50#1 50#0 49 48 47 -67 33 31 -76 -77 -78#0 -78#1 -79 -80 47 -67 -68 -69 -24 -76 -77 -78#0 -78#1 -79 -80 -48 -49 -50#0 -50#1 -51 -52 -81 -60 52 51 50#1 50#0 49 48 80 79 78#1 78#0 77 76 24 4 -62 -21 -22 -23 69 68 67 66 65 -0 -1 -2 -20 -21 -22 -23 69 68 67 66 65 -0 -1 -2 -20 -21 -22 -23 69 68 67 66 65 -0 -1 29 28 -25 -38 -12 -13 16 -30 -31 -32 -68 -69 -24 -31 -58 -69 -24 -76 -77 -78#0 -78#1 -79 -80 47 -67 -68 -69 4 61 -13 16 -30 -31 -32 -68 -69 -24 -76 -77 -78#0 -78#1 -79 -80 47 66 65 -0 -1 -2 -3 61 -13 16 -30 -31 -32 -68 -69 4 3 2 1 -41 17 73 -65 -5 -7 43 42 17 73 -65 -66 -47 80 79 78#1 78#0 77 76 -31 -32 -68 -69 23 22 21 62 -4 69 68 67 -47 80 79 78#1 78#0 77 76 24 23 22 21 20 2 1 -41 -42 -43 -8 34 -36 -38 -12 -13 16 -30 24 4 -62 -21 -22 -23 69 68 67 66 65 -0 -1 29 18 41 0 -65 -66 -67 -68 -69 -24 -76 -77 -78#0 -78#1 -79 -80 -48 -49 -50#0 -50#1 -51 -52 -81 -60 52 51 50#1 50#0 49 48 80 79 78#1 78#0 77 76 -31 -58 -69 23 22 21 20 19 28 -25 -61 -62 -21 -22 -23 -24 -31 -58 -69 4 61 -13 16 -30 -76 -77 -78#0 -78#1 -79 -80 -48 -49 -50#0 -50#1 -51 -52 -81 -60 52 51 50#1 50#0 49 48 47 -67 -68 -69 4 3 -20 62 -44 21 20 2 1 0 -73 -17 -18 -19 -3 -44 21 62 -44 21 62 -4 69 68 67 -47 -48 -49 -50#0 -50#1 -51 -52 -81 -60 52 51 50#1 50#0 49 48 80 79 78#1 78#0 77 76 24 4 61 -13 16 -30 -31 -32 -68 -69 4 61 -13 16 -30 -76 -77 -78#0 -78#1 -79 -80 47 66 65 -0"/>
    </vehicle>
    <vehicle id="veh103.0" depart="0.00" departPos="random" departSpeed="max" type="vehicle.lincoln.mkz_2017">
        <route edges="-81 -60 52 51 50#1 50#0 49 48 47 -67 -68 -69 23 22 21 62 3 19 28 -25 -61 3 19 28 -25 -61 -62 -21 -22 -23 69 68 67 -47 -48 -49 -50#0 -50#1 -51 -52 -81 -60 52 51 50#1 50#0 49 48 80 79 78#1 78#0 77 76 -31 -58 -69 4 3 -20 62 -44 -22 -23 4 61 -13 16 -30 -76 -77 -78#0 -78#1 -79 -80 -48 -49 -50#0 -50#1 -51 -52 -81 -60 52 51 50#1 50#0 49 48 47 -67 -68 -69 4 61 -13 16 -30 -31 -32 -68 -69 4 -44 21 20 19 18 -42 -43 -8 34 15 -28 -29 -2 -20 62 61 -13 16 -30 -76 -77 -78#0 -78#1 -79 -80 47 -67 33 31 24 4 3 -20 -21 -22 -23 69 68 67 66 65 -0 -1 29 -19 2 29 18 41 0 -65 -5 -7 43 42 17 -74 -59 42 17 -74 -59 -43 -8 34 -36 -38 -12 -13 16 -30 -31 -58 -69 23 22 21 20 -3 -62 -21 -22 -23 69 68 67 66 65 -0 -1 29 -19 -3 -62 20 -3 -62 -21 -22 -23 69 68 67 66 65 -0 -1 -2 -3 -62 20 19 18 -42 -43 -8 34 -36 -38 -12 -13 -14 -10 -11 15 -28 -29 -2 -3 -62 -21 -22 -23 69 68 67 66 65 -0 -1 29 28 -25 -38 -12 -13 16 -30 24 23 22 21 62 -44 -22 -23 -24 -76 -77 -78#0 -78#1 -79 -80 -48 -49 -50#0 -50#1 -51 -52 -81 -60 52 51 50#1 50#0 49 48 80 79 78#1 78#0 77 76 24 4 -62 -21 -22 -23 69 68 67 66 65 -0 -1 29 -19 -3 -62 20 2 29 -19 -3 -62 -21 -22 -23 4 3 2 29 -19 -20 62 -4 69 68 67 66 65 -0 -1 -2 -20 62 -4 69 68 67 -47 -48 -49 -50#0 -50#1 -51 -52 -81 -60 52 51 50#1 50#0 49 48 80 79 78#1 78#0 77 76 24 4 61 -13 16 -30 -31 -32 -68 -69 -24 -76 -77 -78#0 -78#1 -79 -80 -48 -49 -50#0 -50#1 -51 -52 -81 -60 52 51 50#1 50#0 49 48 47 66 65 -0 -1 -2 -3 -4 69 68 67 -47 80 79 78#1 78#0 77 76 -31 -32 -68 -69 -24 30 -10 46 8 7 6 -66 -67 -68 -69 4 -62 -21 -22 -23 4 61 -13 16 -30 24 69 68 67 66 65 -0 -1 -2 -3 -62 20 -3 -62 -21 -22 -23 -24 30 -10 -11 15 -28 -29 1 0 -65 -5 75 74 73 -65 -66 -67 -68 -69 4 -62 -21 -22 -23 -24 30 -10 -11 15 -28 -19 -20 62 -4 69 68 67 66 65 -0 -1 -2 -20 -21 -22 -23 4 61 -13 16 -30 24 69 68 67 66 65 -0 -1 29 18 41 0 -65 -66 -67 33 31 -76 -77 -78#0 -78#1 -79 -80 -48 -49 -50#0 -50#1 -51 -52 -81 -60 52 51 50#1 50#0 49 48 47 66 65 -0 -1 -2 -20 62 61 -13 16 -30 -31 -58 -69 4 61 -13 -14 -10 -11 15 -28 18 41 0 -65 -66 -67 -68 -69 -24 -76 -77 -78#0 -78#1 -79 -80 -48 -49 -50#0 -50#1 -51 -52 -81 -60 52 51 50#1 50#0 49 48 80 79 78#1 78#0 77 76 -31 -32 -68 -69 4 61 -13 16 -30 -31 -32 -68 -69 4 61 -13 16 -30 -31 -32 -68 -69 -24 -76 -77 -78#0 -78#1 -79 -80 -48 -49 -50#0 -50#1 -51 -52 -81 -60 52 51 50#1 50#0 49 48 47 -67 -68 -69 23 22 21 20 -3 -4 23 22 21 20 -3 -62 -21 -22 -23 69 68 67 66 65 -0 -1 -2 19 18 -42 -43 -8 34 15 -28 -29 -2 -3 61 -13 16 -30 -31 -58 -69 -24 -76 -77 -78#0 -78#1 -79 -80 -48 -49 -50#0 -50#1 -51 -52 -81 -60 52 51 50#1 50#0 49 48 47 66 65 -0 -1 29 18 41 0 -65 -5 75 74 -17 41 0 -65 -5 75 74 -17 41 0 -73 -74 -75 -7 43 42 17 73 -65 -66 -67 -68 -69 4 -62 20 19 -29 1 -41 -18 -29 1 -41 17 73 -65 -5 -7 -8 34 -36 -38 -12 -13 16 -30 24 69 68 67 66 65 -0 -1 29 -19 2 1 -41 -18 -29 -2 -20 62 -44 21 20 -3 61 -13 16 -30 -76 -77 -78#0 -78#1 -79 -80 -48 -49 -50#0 -50#1 -51 -52 -81 -60 52 51 50#1 50#0 49 48 47 66 65 -0 -1 29 28 -25 -38 -12 -13 16 -30 24 69 68 67 66 65 -0 -1 -2 19 18 41 0 -73 -17 41 0 -65 -5 75 74 73 -65 -66 -47 80 79 78#1 78#0 77 76 -31 -32 -68 -69 4 -44 21 62 -44 -22 -23 69 68 67 66 65 -0 -1 29 -19 -3 -4 69 68 67 -47 80 79 78#1 78#0 77 76 24 4 3 2 1 0 -73 -17 -42"/>
    </vehicle>
    <vehicle id="veh104.0" depart="0.00" departPos="random" departSpeed="max" type="vehicle.lincoln.mkz_2020">
        <route edges="-30 -31 -32 -68 -69 23 22 21 62 -44 -22 -23 4 3 19 28 -25 -38 -12 -13 16 -30 24 69 68 67 66 65 -0 -1 29 28 -25 -38 -12 -13 16 -30 24 4 -62 20 -3 -62 20 19 18 17 73 -65 -5 -7 43 42 17 73 -65 -5 75 74 73 -65 -66 -67 33 31 -76 -77 -78#0 -78#1 -79 -80 -48 -49 -50#0 -50#1 -51 -52 -81 -60 52 51 50#1 50#0 49 48 47 -67 33 31 -76 -77 -78#0 -78#1 -79 -80 -48 -49 -50#0 -50#1 -51 -52 -81 -60 52 51 50#1 50#0 49 48 47 -67 -68 -69 23 22 21 62 -4 69 68 67 66 65 -0 -1 -2 -3 -62 -21 -22 -23 -24 30 -10 -11 15 -28 -19 -3 -44 21 20 -3 -44 -22 -23 69 68 67 66 65 -0 -1 -2 19 28 -25 -38 -12 -13 16 -30 24 69 68 67 66 65 -0 -1 29 -19 -20 62 -4 69 68 67 66 65 -0 -1 -2 19 28 -25 -61 -62 20 2 29 -19 -20 62 61 -13 16 -30 -31 -32 -68 -69 4 61 -13 16 -30 24 4 61 -13 16 -30 -31 -58 -69 -24 -76 -77 -78#0 -78#1 -79 -80 -48 -49 -50#0 -50#1 -51 -52 -81 -60 52 51 50#1 50#0 49 48 80 79 78#1 78#0 77 76 24 4 3 -20 -21 -22 -23 4 3 2 1 -41 -42 -43 -8 34 -36 -38 -12 -13 16 -30 24 4 61 -13 16 -30 24 4 61 -13 16 -30 -31 -32 -68 -69 4 3 19 18 17 -74 -59 42 -18 -19 -3 -44 21 62 61 -13 16 -30 24 23 22 21 62 61 -13 -14 -10 46 8 7 6 -66 -67 -68 -69 -24 -31 -58 -69 4 -62 -21 -22 -23 69 68 67 66 65 -0 -1 29 -19 2 1 -41 -18 28 -25 -38 -12 -13 -14 -10 -11 15 -28 18 41 0 -65 -5 75 -59 42 17 73 -65 -5 -7 -8 34 -36 -38 -12 -13 16 -30 24 4 3 19 28 -25 -38 -12 -13 16 -30 24 4 61 -13 16 -30 -31 -32 -68 -69 4 61 -13 16 -30 -76 -77 -78#0 -78#1 -79 -80 -48 -49 -50#0 -50#1 -51 -52 -81 -60 52 51 50#1 50#0 49 48 47 -67 -68 -69 4 -62 -21 -22 -23 4 3 -20 -21 -22 -23 69 68 67 66 65 -0 -1 29 -19 -3 -62 -21 -22 -23 69 68 67 66 65 -0 -1 -2 19 -29 1 -41 -18 28 -25 -38 -12 -13 16 -30 -76 -77 -78#0 -78#1 -79 -80 47 -67 33 31 30 -10 46 8 7 6 -66 -67 33 31 -76 -77 -78#0 -78#1 -79 -80 47 66 65 -0 -1 -2 -20 62 -4 23 22 21 62 -4 69 68 67 66 65 -0 -1 29 28 -25 -38 -12 -13 -14 -10 -11 15 -28 -29 1 -41 17 73 -65 -5 -7 -8 34 -36 -38 -12 -13 16 -30 -76 -77 -78#0 -78#1 -79 -80 -48 -49 -50#0 -50#1 -51 -52 -81 -60 52 51 50#1 50#0 49 48 47 -67 33 31 30 -10 46 8 7 6 -66 -67 33 31 24 4 3 19 -29 -2 19 28 -25 -38 -12 -13 16 -30 24 69 68 67 66 65 -0 -1 29 -19 -20 62 -44 21 20 19 -29 1 -41 -18 -29 -2 19 18 -42 -43 -8 34 15 -28 18 -42 -43 -8 34 15 -28 -29 -2 -3 61 -13 16 -30 -31 -32 -68 -69 23 22 21 20 2 1 -41 -18 -19 2 29 18 41 0 -65 -5 75 -59 42 17 73 -65 -5 75 -59 -43 -8 34 -36 -38 -12 -13 16 -30 -31 -58 -69 -24 30 -10 46 8 7 6 -66 -67 -68 -69 -24 -76 -77 -78#0 -78#1 -79 -80 47 66 65 -0 -1 -2 19 28 -25 -38 -12 -13 16 -30 -76 -77 -78#0 -78#1 -79 -80 47 -67 -68 -69 4 -62 -21 -22 -23 4 -62 -21 -22 -23 69 68 67 66 65 -0 -1 -2 -3 -62 20 -3 -62 20 -3 -62 -21 -22 -23 69 68 67 66 65 -0 -1 29 -19 -3 61 -13 -14 -10 46 8 7 6 -66 -67 -68 -69 4 -44 21 62 61 -13 -14 -10 46 8 7 6 -66 -67 -68 -69 23 22 21 62 3 2 29 -19 2 1 0 -73 -74 -59 42 -18 -29 -2 19 28 -25 -38 -12 -13 -14 -10 46 8 7 6 -66 -67 -68 -69 -24 -76 -77 -78#0 -78#1 -79 -80 -48 -49 -50#0 -50#1 -51 -52 -81 -60 52 51 50#1 50#0 49 48 47 66 65 -0 -1 -2 -20 62 -4 23 22 21 62 -4 69 68 67 66 65 -0 -1 -2 19 18 41 0 -73 -17 41 0 -65 -66 -67 33 31 30 -10 46 8 7 6 -66 -47 80 79 78#1 78#0 77 76 30 -10 46 8 7 6 -66"/>
    </vehicle>
    <vehicle id="veh105.0" depart="0.00" departPos="random" departSpeed="max" type="vehicle.mercedes.coupe">