<?xml version='1.0' encoding='UTF-8'?>
<!-- generated on 2023-11-14 13:45:32 by Eclipse SUMO jtrrouter Version 1.18.0
<configuration xmlns:xsi="http://www.w3.org/2001/XMLSchema-instance" xsi:noNamespaceSchemaLocation="http://sumo.dlr.de/xsd/jtrrouterConfiguration.xsd">

    <input>
        <net-file value="D:\Scripts\SUMO\generate_routes\net\Town06.net.xml"/>
        <route-files value="D:\Scripts\SUMO\generate_routes\rou\Town06_veh.flows.xml"/>
        <turn-ratio-files value="D:\Scripts\SUMO\generate_routes\turn\Town06.turns.xml"/>
    </input>

    <output>
        <output-file value="D:\Scripts\SUMO\generate_routes\rou\Town06_veh.rou.xml"/>
    </output>

    <processing>
        <turn-defaults value="25,50,25"/>
        <accept-all-destinations value="true"/>
        <allow-loops value="true"/>
    </processing>

    <report>
        <verbose value="true"/>
    </report>

    <random_number>
        <seed value="43"/>
    </random_number>

</configuration>
-->
<routes xmlns:xsi="http://www.w3.org/2001/XMLSchema-instance" xsi:noNamespaceSchemaLocation="http://sumo.dlr.de/xsd/routes_file.xsd">
    <vehicle id="veh0.0" depart="0.00" departPos="random" departSpeed="max" type="vehicle.audi.a2">
        <route edges="-13 -58 1 23 22#1 22#0 21 20 -13 -58 1 23 22#1 22#0 21 -7 42 -18 -9 21 20 -13 -58 1 0 33 26 -62 -33 -39 -32 68 -37 -38 5 4 -48#0 -48#1 -49 -50 -51 -52#0 -52#1 -59 -13 -58 1 23 22#1 22#0 21 -7 42 -18 -19 -39 -40 5 4 -48#0 -48#1 -49 -50 -51 -52#0 -52#1 -59 -13 -58 1 0 -39 -32 68 -37 -70 24 -30 4 -48#0 -48#1 -49 -50 54 -46 -10 -54 -51 -52#0 -52#1 -59 -13 -14 -15#0 -15#1 -16 -28 -29#0 -29#1 27 -48#0 -48#1 -49 -50 -51 -52#0 -52#1 -53 -18 -9 21 20 -13 -14 -15#0 -15#1 -41 -50 54 -46 -10 -54 -51 -52#0 -52#1 -59 -13 -58 1 23 22#1 22#0 21 20 -13 -58 1 0 -39 -40 5 4 -48#0 -48#1 -49 -50 -51 -52#0 -52#1 -59 -13 -58 1 23 22#1 22#0 21 -7 42 -18 -9 21 20 -13 -58 1 23 22#1 22#0 21 -7 42 -18 -19 -39 -32 68 -37 -70 24 -30 4 -48#0 -48#1 -49 -50 -51 -52#0 -52#1 -53 -18 -19 -39 -32 68 -37 -38 5 4 -48#0 -48#1 -49 -50 54 -46 -10 -54 -55 -58 1 0 -39 -32 68 -37 -70 24 -30 4 -48#0 -48#1 -49 -50 -51 -52#0 -52#1 -59 -13 -58 1 23 22#1 22#0 21 20 -13 -58 1 0 33 26 -62 -33 -34 -1 58 -14 -15#0 -15#1 -16 -28 -29#0 -29#1 27 -48#0 -48#1 -49 -50 -51 -52#0 -52#1 -53 -18 -9 21 -7 42 -18 -19 -39 -40 5 4 -48#0 -48#1 -49 -50 -51 -52#0 -52#1 -53 -18 -9 21 20 -13 -14 -15#0 -15#1 -16 -28 -29#0 -29#1 27 -48#0 -48#1 -49 -50 54 -46 -10 -54 -51 -52#0 -52#1 -59 -13 -58 1 0 -39 -32 68 -37 -70 24 -30 4 -48#0 -48#1 -49 -50 -51 -52#0 -52#1 -53 -18 -9 21 20 -13 -58 1 23 22#1 22#0 21 -7 42 -18 -19 33 26 -62 -33 -39 -32 68 -37 -38 5 4 -48#0 -48#1 -49 -50"/>
    </vehicle>
    <vehicle id="veh1.0" depart="0.00" departPos="random" departSpeed="max" type="vehicle.audi.tt">
        <route edges="-19 -39 -40 5 4 -48#0 -48#1 -49 -50 54 -46 -10 -54 -55 -58 1 0 33 26 -62 -33 -39 -32 68 -37 -70 24 -30 4 -48#0 -48#1 -49 -50 -51 -52#0 -52#1 -59 -13 -58 1 23 22#1 22#0 21 20 -13 -14 -15#0 -15#1 -41 -50 54 -46 -10 -54 -51 -52#0 -52#1 -53 -18 -19 -39 -32 68 -37 -70 24 -30 4 -48#0 -48#1 -49 -50 54 -46 -10 -54 -55 -58 1 23 22#1 22#0 21 20 -13 -58 1 0 -39 -32 68 -37 -38 5 4 -48#0 -48#1 -49 -50 54 -46 -10 -54 -51 -52#0 -52#1 -59 -13 -14 -15#0 -15#1 -41 -50 54 -46 -10 -54 -51 -52#0 -52#1 -53 -18 -9 21 20 -13 -58 1 23 22#1 22#0 21 20 -13 -58 1 23 22#1 22#0 21 20 -13 -14 -15#0 -15#1 -41 -50 -51 -52#0 -52#1 -53 -18 -19 33 26 -62 -33 -39 -32 68 -37 -70 24 -30 4 -48#0 -48#1 -49 -50 -51 -52#0 -52#1 -53 -18 -9 21 -7 42 -18 -19 -39 -40 5 4 -48#0 -48#1 -49 -50 54 -46 -10 -54 -55 -58 1 0 -39 -40 5 4 -48#0 -48#1 -49 -50 -51 -52#0 -52#1 -53 -18 -19 -39 -32 68 -37 -70 24 -30 4 -48#0 -48#1 -49 -50 -51 -52#0 -52#1 -53 -18 -19 -39 -40 5 4 -48#0 -48#1 -49 -50 54 -46 -10 -54 -51 -52#0 -52#1 -53 -18 -19 33 26 -62 -33 -34 -35 -36 -37 -70 24 -30 4 -48#0 -48#1 -49 -50 54 -46 -10 -54 -51 -52#0 -52#1 -53 -18 -19 -39 -32 68 -37 -70 24 -30 4 -48#0 -48#1 -49 -50 54 -46 -10 -54 -51 -52#0 -52#1 -59 -13 -58 1 0 -39 -40 5 4 -48#0 -48#1 -49 -50 -51 -52#0 -52#1 -53 -18 -19 -39 -32 68 -37 -70 24 -30 4 -48#0 -48#1 -49 -50 54 -46 -10 -54 -55 -58 1 0 33 26 -62 -33 -34 -1 58 -14 -15#0 -15#1 -41 -50 54 -46 -10 -54 -55 -58 1 0 -39 -32 68 -37 -70"/>
    </vehicle>
    <vehicle id="veh10.0" depart="0.00" departPos="random" departSpeed="max" type="vehicle.bmw.grandtourer">
        <route edges="-51 -52#0 -52#1 -53 -18 -19 33 26 -62 -33 -39 -40 5 4 -48#0 -48#1 -49 -50 -51 -52#0 -52#1 -53 -18 -19 -39 -40 5 4 -48#0 -48#1 -49 -50 -51 -52#0 -52#1 -53 -18 -9 21 -7 42 -18 -9 21 20 -13 -58 1 23 22#1 22#0 21 -7 42 -18 -19 -39 -40 5 4 -48#0 -48#1 -49 -50 -51 -52#0 -52#1 -59 -13 -58 1 0 -39 -32 68 -37 -70 24 -30 4 -48#0 -48#1 -49 -50 -51 -52#0 -52#1 -59 -13 -58 1 23 22#1 22#0 21 -7 42 -18 -9 21 -7 42 -18 -19 33 26 -62 -33 -39 -40 5 4 -48#0 -48#1 -49 -50 -51 -52#0 -52#1 -59 -13 -58 1 23 22#1 22#0 21 -7 42 -18 -9 21 20 -13 -58 1 23 22#1 22#0 21 -7 42 -18 -19 -39 -32 68 -37 -38 5 4 -48#0 -48#1 -49 -50 -51 -52#0 -52#1 -53 -18 -19 -39 -40 5 4 -48#0 -48#1 -49 -50 54 -46 -10 -54 -55 -58 1 23 22#1 22#0 21 20 -13 -14 -15#0 -15#1 -16 -28 -29#0 -29#1 -30 4 -48#0 -48#1 -49 -50 -51 -52#0 -52#1 -59 -13 -58 1 23 22#1 22#0 21 -7 42 -18 -9 21 -7 42 -18 -9 21 -7 42 -18 -19 -39 -32 68 -37 -70 24 -30 4 -48#0 -48#1 -49 -50 -51 -52#0 -52#1 -59 -13 -58 1 23 22#1 22#0 21 20 -13 -14 -15#0 -15#1 -16 -28 -29#0 -29#1 27 -48#0 -48#1 -49 -50 -51 -52#0 -52#1 -59 -13 -14 -15#0 -15#1 -41 -50 54 -46 -10 -54 -55 -58 1 23 22#1 22#0 21 -7 42 -18 -9 21 20 -13 -58 1 0 -39 -32 68 -37 -70 24 -30 4 -48#0 -48#1 -49 -50 -51 -52#0 -52#1 -53 -18 -19 33 26 -62 -33 -39 -40 5 4 -48#0 -48#1 -49 -50 -51 -52#0 -52#1 -53 -18 -9 21 -7 42 -18 -9 21 20 -13 -14 -15#0 -15#1 -16 -28 -29#0 -29#1 27 -48#0 -48#1 -49 -50 54 -46 -10 -54 -55 -58 1 23 22#1 22#0 21 20"/>
    </vehicle>
    <vehicle id="veh100.0" depart="0.00" departPos="random" departSpeed="max" type="vehicle.chevrolet.impala">
        <route edges="-32 68 -37 -38 5 4 -48#0 -48#1 -49 -50 -51 -52#0 -52#1 -53 -18 -19 33 26 -62 -33 -34 -35 -36 -37 -38 5 4 -48#0 -48#1 -49 -50 -51 -52#0 -52#1 -59 -13 -58 1 0 33 26 -62 -33 -39 -32 68 -37 -70 24 -30 4 -48#0 -48#1 -49 -50 54 -46 -10 -54 -51 -52#0 -52#1 -59 -13 -14 -15#0 -15#1 -16 -28 -29#0 -29#1 -30 4 -48#0 -48#1 -49 -50 -51 -52#0 -52#1 -53 -18 -9 21 20 -13 -58 1 23 22#1 22#0 21 -7 42 -18 -9 21 -7 42 -18 -19 -39 -32 68 -37 -70 24 -30 4 -48#0 -48#1 -49 -50 54 -46 -10 -54 -55 -58 1 23 22#1 22#0 21 -7 42 -18 -19 33 26 -62 -33 -39 -32 68 -37 -38 5 4 -48#0 -48#1 -49 -50 54 -46 -10 -54 -51 -52#0 -52#1 -53 -18 -9 21 20 -13 -14 -15#0 -15#1 -41 -50 54 -46 -10 -54 -51 -52#0 -52#1 -53 -18 -19 -39 -40 5 4 -48#0 -48#1 -49 -50 -51 -52#0 -52#1 -53 -18 -19 -39 -32 68 -37 -38 5 4 -48#0 -48#1 -49 -50 -51 -52#0 -52#1 -53 -18 -9 21 20 -13 -58 1 23 22#1 22#0 21 -7 42 -18 -9 21 20 -13 -14 -15#0 -15#1 -41 -50 -51 -52#0 -52#1 -53 -18 -19 -39 -32 68 -37 -38 5 4 -48#0 -48#1 -49 -50 -51 -52#0 -52#1 -53 -18 -9 21 20 -13 -14 -15#0 -15#1 -41 -50 -51 -52#0 -52#1 -59 -13 -58 1 0 33 26 -62 -33 -39 -40 5 4 -48#0 -48#1 -49 -50 -51 -52#0 -52#1 -59 -13 -58 1 23 22#1 22#0 21 -7 42 -18 -9 21 -7 42 -18 -19 33 26 -62 -33 -39 -32 68 -37 -38 5 4 -48#0 -48#1 -49 -50 -51 -52#0 -52#1 -53 -18 -9 21 20 -13 -14 -15#0 -15#1 -16 -28 -29#0 -29#1 27 -48#0 -48#1 -49 -50 -51 -52#0 -52#1 -59 -13 -58 1 23 22#1 22#0 21 -7 42 -18 -19 33 26 -62 -33 -34 -1 58 -14 -15#0 -15#1 -41"/>
    </vehicle>
    <vehicle id="veh101.0" depart="0.00" departPos="random" departSpeed="max" type="vehicle.citroen.c3">
        <route edges="-40 5 4 -48#0 -48#1 -49 -50 54 -46 -10 -54 -55 -58 1 23 22#1 22#0 21 -7 42 -18 -9 21 20 -13 -58 1 0 33 26 -62 -33 -34 -1 58 57 54 -46 -10 -54 -51 -52#0 -52#1 -53 -18 -19 -39 -32 68 -37 -70 24 -30 4 -48#0 -48#1 -49 -50 54 -46 -10 -54 -55 -58 1 23 22#1 22#0 21 -7 42 -18 -9 21 -7 42 -18 -9 21 -7 42 -18 -19 33 26 -62 -33 -39 -40 5 4 -48#0 -48#1 -49 -50 -51 -52#0 -52#1 -59 -13 -14 -15#0 -15#1 -41 -50 -51 -52#0 -52#1 -59 -13 -58 1 23 22#1 22#0 21 20 -13 -58 1 23 22#1 22#0 21 -7 42 -18 -9 21 20 -13 -14 -15#0 -15#1 -16 -28 -29#0 -29#1 27 -48#0 -48#1 -49 -50 -51 -52#0 -52#1 -53 -18 -9 21 -7 42 -18 -9 21 20 -13 -14 -15#0 -15#1 -41 -50 -51 -52#0 -52#1 -53 -18 -19 33 26 -62 -33 -34 -1 58 -14 -15#0 -15#1 -16 -28 -29#0 -29#1 27 -48#0 -48#1 -49 -50 -51 -52#0 -52#1 -59 -13 -14 -15#0 -15#1 -41 -50 -51 -52#0 -52#1 -53 -18 -19 33 26 -62 -33 -39 -32 68 -37 -70 24 -30 4 -48#0 -48#1 -49 -50 54 -46 -10 -54 -55 -58 1 0 -39 -32 68 -37 -38 5 4 -48#0 -48#1 -49 -50 54 -46 -10 -54 -55 -58 1 23 22#1 22#0 21 -7 42 -18 -19 33 26 -62 -33 -34 -1 58 57 54 -46 -10 -54 -51 -52#0 -52#1 -53 -18 -19 33 26 -62 -33 -39 -40 5 4 -48#0 -48#1 -49 -50 -51 -52#0 -52#1 -59 -13 -14 -15#0 -15#1 -16 -28 -29#0 -29#1 27 -48#0 -48#1 -49 -50 54 -46 -10 -54 -55 -58 1 23 22#1 22#0 21 20 -13 -14 -15#0 -15#1 -41 -50 54 -46 -10 -54 -55 -58 1 23 22#1 22#0 21 -7 42 -18 -9 21 -7 42 -18 -19 33 26 -62 -33 -34 -35 -8 -28 -29#0 -29#1 27 -48#0 -48#1 -49 -50 -51 -52#0 -52#1"/>
    </vehicle>
    <vehicle id="veh102.0" depart="0.00" departPos="random" departSpeed="max" type="vehicle.jeep.wrangler_rubicon">
        <route edges="-32 68 -37 -38 5 4 -48#0 -48#1 -49 -50 -51 -52#0 -52#1 -53 -18 -9 21 -7 42 -18 -9 21 -7 42 -18 -9 21 20 -13 -58 1 0 33 26 -62 -33 -34 -35 -8 -28 -29#0 -29#1 -30 4 -48#0 -48#1 -49 -50 54 -46 -10 -54 -55 -58 1 23 22#1 22#0 21 -7 42 -18 -9 21 20 -13 -14 -15#0 -15#1 -16 -28 -29#0 -29#1 -30 4 -48#0 -48#1 -49 -50 54 -46 -10 -54 -51 -52#0 -52#1 -53 -18 -9 21 -7 42 -18 -9 21 20 -13 -58 1 0 -39 -40 5 4 -48#0 -48#1 -49 -50 -51 -52#0 -52#1 -59 -13 -58 1 0 33 26 -62 -33 -39 -40 5 4 -48#0 -48#1 -49 -50 -51 -52#0 -52#1 -53 -18 -19 33 26 -62 -33 -34 -1 58 -14 -15#0 -15#1 -41 -50 -51 -52#0 -52#1 -53 -18 -9 21 -7 42 -18 -9 21 20 -13 -14 -15#0 -15#1 -41 -50 54 -46 -10 -54 -51 -52#0 -52#1 -59 -13 -14 -15#0 -15#1 -16 -28 -29#0 -29#1 -30 4 -48#0 -48#1 -49 -50 54 -46 -10 -54 -55 -58 1 23 22#1 22#0 21 -7 42 -18 -9 21 -7 42 -18 -9 21 -7 42 -18 -9 21 -7 42 -18 -9 21 -7 42 -18 -9 21 20 -13 -14 -15#0 -15#1 -41 -50 54 -46 -10 -54 -51 -52#0 -52#1 -59 -13 -14 -15#0 -15#1 -41 -50 -51 -52#0 -52#1 -53 -18 -9 21 20 -13 -14 -15#0 -15#1 -16 -28 -29#0 -29#1 -30 4 -48#0 -48#1 -49 -50 -51 -52#0 -52#1 -53 -18 -19 -39 -40 5 4 -48#0 -48#1 -49 -50 -51 -52#0 -52#1 -53 -18 -19 -39 -40 5 4 -48#0 -48#1 -49 -50 -51 -52#0 -52#1 -59 -13 -58 1 23 22#1 22#0 21 -7 42 -18 -9 21 -7 42 -18 -19 -39 -32 68 -37 -70 24 -30 4 -48#0 -48#1 -49 -50 -51 -52#0 -52#1 -53 -18 -9 21 20 -13 -14 -15#0 -15#1 -16 -28 -29#0 -29#1 -30 4 -48#0 -48#1 -49 -50 -51 -52#0 -52#1 -53 -18 -9 21 20"/>
    </vehicle>
    <vehicle id="veh103.0" depart="0.00" departPos="random" departSpeed="max" type="vehicle.lincoln.mkz_2017">
        <route edges="-52#0 -52#1 -59 -13 -58 1 0 33 26 -62 -33 -34 -35 -8 -28 -29#0 -29#1 -30 4 -48#0 -48#1 -49 -50 -51 -52#0 -52#1 -53 -18 -9 21 20 -13 -14 -15#0 -15#1 -16 -28 -29#0 -29#1 -30 4 -48#0 -48#1 -49 -50 -51 -52#0 -52#1 -59 -13 -14 -15#0 -15#1 -16 -28 -29#0 -29#1 27 -48#0 -48#1 -49 -50 -51 -52#0 -52#1 -59 -13 -58 1 0 -39 -32 68 -37 -38 5 4 -48#0 -48#1 -49 -50 54 -46 -10 -54 -51 -52#0 -52#1 -59 -13 -14 -15#0 -15#1 -41 -50 54 -46 -10 -54 -51 -52#0 -52#1 -59 -13 -14 -15#0 -15#1 -41 -50 54 -46 -10 -54 -51 -52#0 -52#1 -53 -18 -9 21 -7 42 -18 -19 -39 -32 68 -37 -70 24 -30 4 -48#0 -48#1 -49 -50 54 -46 -10 -54 -55 -58 1 0 -39 -40 5 4 -48#0 -48#1 -49 -50 -51 -52#0 -52#1 -53 -18 -19 -39 -40 5 4 -48#0 -48#1 -49 -50 -51 -52#0 -52#1 -59 -13 -14 -15#0 -15#1 -41 -50 -51 -52#0 -52#1 -53 -18 -9 21 -7 42 -18 -19 33 26 -62 -33 -34 -35 -36 -37 -38 5 4 -48#0 -48#1 -49 -50 54 -46 -10 -54 -55 -58 1 23 22#1 22#0 21 -7 42 -18 -19 33 26 -62 -33 -34 -35 -8 -28 -29#0 -29#1 -30 4 -48#0 -48#1 -49 -50 54 -46 -10 -54 -55 -58 1 0 33 26 -62 -33 -39 -40 5 4 -48#0 -48#1 -49 -50 -51 -52#0 -52#1 -53 -18 -9 21 -7 42 -18 -19 -39 -40 5 4 -48#0 -48#1 -49 -50 -51 -52#0 -52#1 -59 -13 -58 1 0 33 26 -62 -33 -34 -1 58 57 54 -46 -10 -54 -51 -52#0 -52#1 -59 -13 -58 1 23 22#1 22#0 21 20 -13 -14 -15#0 -15#1 -16 -28 -29#0 -29#1 27 -48#0 -48#1 -49 -50 -51 -52#0 -52#1 -59 -13 -58 1 0 -39 -40 5 4 -48#0 -48#1 -49 -50 -51 -52#0 -52#1 -59 -13 -58 1 23 22#1 22#0 21 -7 42 -18 -9 21 -7 42 -18 -19 33 26 -62"/>
    </vehicle>
    <vehicle id="veh104.0" depart="0.00" departPos="random" departSpeed="max" type="vehicle.lincoln.mkz_2020">
        <route edges="-29#0 -29#1 -30 4 -48#0 -48#1 -49 -50 54 -46 -10 -54 -51 -52#0 -52#1 -53 -18 -9 21 -7 42 -18 -9 21 20 -13 -58 1 23 22#1 22#0 21 20 -13 -58 1 23 22#1 22#0 21 20 -13 -58 1 0 -39 -40 5 4 -48#0 -48#1 -49 -50 -51 -52#0 -52#1 -53 -18 -9 21 -7 42 -18 -9 21 20 -13 -58 1 0 33 26 -62 -33 -39 -32 68 -37 -70 24 -30 4 -48#0 -48#1 -49 -50 -51 -52#0 -52#1 -59 -13 -14 -15#0 -15#1 -41 -50 54 -46 -10 -54 -55 -58 1 23 22#1 22#0 21 20 -13 -14 -15#0 -15#1 -16 -28 -29#0 -29#1 27 -48#0 -48#1 -49 -50 -51 -52#0 -52#1 -53 -18 -9 21 -7 42 -18 -19 -39 -40 5 4 -48#0 -48#1 -49 -50 54 -46 -10 -54 -51 -52#0 -52#1 -59 -13 -58 1 0 33 26 -62 -33 -34 -35 -36 -37 -38 5 4 -48#0 -48#1 -49 -50 54 -46 -10 -54 -51 -52#0 -52#1 -59 -13 -58 1 23 22#1 22#0 21 -7 42 -18 -19 -39 -40 5 4 -48#0 -48#1 -49 -50 -51 -52#0 -52#1 -59 -13 -14 -15#0 -15#1 -16 -28 -29#0 -29#1 27 -48#0 -48#1 -49 -50 54 -46 -10 -54 -55 -58 1 23 22#1 22#0 21 -7 42 -18 -19 -39 -40 5 4 -48#0 -48#1 -49 -50 -51 -52#0 -52#1 -53 -18 -9 21 -7 42 -18 -19 33 26 -62 -33 -34 -35 -36 -37 -70 24 -30 4 -48#0 -48#1 -49 -50 54 -46 -10 -54 -55 -58 1 23 22#1 22#0 21 20 -13 -58 1 0 33 26 -62 -33 -34 -35 -8 -28 -29#0 -29#1 27 -48#0 -48#1 -49 -50 54 -46 -10 -54 -51 -52#0 -52#1 -59 -13 -14 -15#0 -15#1 -41 -50 -51 -52#0 -52#1 -53 -18 -9 21 20 -13 -14 -15#0 -15#1 -41 -50 54 -46 -10 -54 -51 -52#0 -52#1 -53 -18 -19 -39 -32 68 -37 -38 5 4 -48#0 -48#1 -49 -50 -51 -52#0 -52#1 -59 -13 -58 1 23 22#1 22#0 21 -7 42 -18 -9"/>
    </vehicle>
    <vehicle id="veh105.0" depart="0.00" departPos="random" departSpeed="max" type="vehicle.mercedes.coupe">
        <route edges="22#1 22#0 21 20 -13 -58 1 23 22#1 22#0 21 -7 42 -18 -9 21 20 -13 -58 1 0 -39 -40 5 4 -48#0 -48#1 -49 -50 -51 -52#0 -52#1 -59 -13 -14 -15#0 -15#1 -41 -50 54 -46 -10 -54 -51 -52#0 -52#1 -53 -18 -19 33 26 -62 -33 -39 -32 68 -37 -70 24 -30 4 -48#0 -48#1 -49 -50 54 -46 -10 -54 -51 -52#0 -52#1 -59 -13 -14 -15#0 -15#1 -16 -28 -29#0 -29#1 27 -48#0 -48#1 -49 -50 54 -46 -10 -54 -55 -58 1 23 22#1 22#0 21 -7 42 -18 -9 21 -7 42 -18 -9 21 -7 42 -18 -19 -39 -32 68 -37 -70 24 -30 4 -48#0 -48#1 -49 -50 -51 -52#0 -52#1 -59 -13 -14 -15#0 -15#1 -16 -28 -29#0 -29#1 -30 4 -48#0 -48#1 -49 -50 -51 -52#0 -52#1 -59 -13 -58 1 23 22#1 22#0 21 -7 42 -18 -9 21 20 -13 -14 -15#0 -15#1 -41 -50 -51 -52#0 -52#1 -59 -13 -58 1 23 22#1 22#0 21 20 -13 -58 1 0 33 26 -62 -33 -39 -40 5 4 -48#0 -48#1 -49 -50 54 -46 -10 -54 -51 -52#0 -52#1 -53 -18 -19 -39 -32 68 -37 -38 5 4 -48#0 -48#1 -49 -50 -51 -52#0 -52#1 -53 -18 -19 33 26 -62 -33 -39 -40 5 4 -48#0 -48#1 -49 -50 54 -46 -10 -54 -55 -58 1 0 -39 -32 68 -37 -70 24 -30 4 -48#0 -48#1 -49 -50 -51 -52#0 -52#1 -53 -18 -9 21 -7 42 -18 -19 33 26 -62 -33 -39 -40 5 4 -48#0 -48#1 -49 -50 -51 -52#0 -52#1 -53 -18 -19 -39 -32 68 -37 -70 24 -30 4 -48#0 -48#1 -49 -50 -51 -52#0 -52#1 -53 -18 -9 21 20 -13 -58 1 23 22#1 22#0 21 -7 42 -18 -9 21 -7 42 -18 -19 -39 -32 68 -37 -38 5 4 -48#0 -48#1 -49 -50 -51 -52#0 -52#1 -59 -13 -58 1 23 22#1 22#0 21 20 -13 -58 1 0 -39 -32 68 -37 -38 5 4 -48#0 -48#1 -49 -50 -51 -52#0"/>
    </vehicle>
    <vehicle id="veh106.0" depart="0.00" departPos="random" departSpeed="max" type="vehicle.mercedes.coupe_2020">
        <route edges="-29#0 -29#1 27 -48#0 -48#1 -49 -50 -51 -52#0 -52#1 -59 -13 -58 1 23 22#1 22#0 21 -7 42 -18 -19 -39 -40 5 4 -48#0 -48#1 -49 -50 -51 -52#0 -52#1 -59 -13 -14 -15#0 -15#1 -41 -50 54 -46 -10 -54 -51 -52#0 -52#1 -53 -18 -19 -39 -32 68 -37 -38 5 4 -48#0 -48#1 -49 -50 -51 -52#0 -52#1 -53 -18 -19 -39 -32 68 -37 -38 5 4 -48#0 -48#1 -49 -50 54 -46 -10 -54 -55 -58 1 23 22#1 22#0 21 -7 42 -18 -9 21 20 -13 -14 -15#0 -15#1 -41 -50 -51 -52#0 -52#1 -53 -18 -19 -39 -40 5 4 -48#0 -48#1 -49 -50 54 -46 -10 -54 -55 -58 1 0 -39 -40 5 4 -48#0 -48#1 -49 -50 -51 -52#0 -52#1 -59 -13 -14 -15#0 -15#1 -41 -50 -51 -52#0 -52#1 -53 -18 -9 21 20 -13 -14 -15#0 -15#1 -41 -50 -51 -52#0 -52#1 -59 -13 -14 -15#0 -15#1 -16 -28 -29#0 -29#1 -30 4 -48#0 -48#1 -49 -50 54 -46 -10 -54 -55 -58 1 23 22#1 22#0 21 -7 42 -18 -9 21 20 -13 -14 -15#0 -15#1 -16 -28 -29#0 -29#1 -30 4 -48#0 -48#1 -49 -50 54 -46 -10 -54 -55 -58 1 23 22#1 22#0 21 20 -13 -58 1 23 22#1 22#0 21 -7 42 -18 -19 -39 -40 5 4 -48#0 -48#1 -49 -50 54 -46 -10 -54 -51 -52#0 -52#1 -53 -18 -9 21 -7 42 -18 -19 -39 -32 68 -37 -70 24 -30 4 -48#0 -48#1 -49 -50 -51 -52#0 -52#1 -59 -13 -14 -15#0 -15#1 -41 -50 54 -46 -10 -54 -51 -52#0 -52#1 -59 -13 -14 -15#0 -15#1 -16 -28 -29#0 -29#1 -30 4 -48#0 -48#1 -49 -50 -51 -52#0 -52#1 -59 -13 -14 -15#0 -15#1 -16 -28 -29#0 -29#1 -30 4 -48#0 -48#1 -49 -50 -51 -52#0 -52#1 -59 -13 -58 1 0 -39 -32 68 -37 -70 24 -30 4 -48#0 -48#1 -49 -50 54 -46 -10 -54 -55 -58 1 23 22#1 22#0 21 20 -13 -14 -15#0 -15#1 -16 -28 -29#0 -29#1 27 -48#0 -48#1 -49"/>
    </vehicle>
    <vehicle id="veh107.0" depart="0.00" departPos="random" departSpeed="max" type="vehicle.mercedes.sprinter">
        <route edges="-54 -55 -58 1 0 33 26 -62 -33 -34 -35 -8 -28 -29#0 -29#1 -30 4 -48#0 -48#1 -49 -50 54 -46 -10 -54 -55 -58 1 23 22#1 22#0 21 -7 42 -18 -19 33 26 -62 -33 -39 -32 68 -37 -38 5 4 -48#0 -48#1 -49 -50 54 -46 -10 -54 -51 -52#0 -52#1 -59 -13 -58 1 23 22#1 22#0 21 -7 42 -18 -9 21 20 -13 -14 -15#0 -15#1 -41 -50 54 -46 -10 -54 -55 -58 1 23 22#1 22#0 21 -7 42 -18 -19 -39 -32 68 -37 -70 24 -30 4 -48#0 -48#1 -49 -50 54 -46 -10 -54 -55 -58 1 23 22#1 22#0 21 20 -13 -14 -15#0 -15#1 -16 -28 -29#0 -29#1 -30 4 -48#0 -48#1 -49 -50 54 -46 -10 -54 -51 -52#0 -52#1 -53 -18 -19 -39 -40 5 4 -48#0 -48#1 -49 -50 54 -46 -10 -54 -51 -52#0 -52#1 -53 -18 -9 21 -7 42 -18 -19 33 26 -62 -33 -39 -40 5 4 -48#0 -48#1 -49 -50 54 -46 -10 -54 -55 -58 1 0 -39 -32 68 -37 -38 5 4 -48#0 -48#1 -49 -50 54 -46 -10 -54 -51 -52#0 -52#1 -59 -13 -58 1 23 22#1 22#0 21 20 -13 -58 1 23 22#1 22#0 21 20 -13 -14 -15#0 -15#1 -41 -50 54 -46 -10 -54 -55 -58 1 0 33 26 -62 -33 -34 -1 58 -14 -15#0 -15#1 -41 -50 -51 -52#0 -52#1 -53 -18 -9 21 20 -13 -58 1 0 -39 -32 68 -37 -70 24 -30 4 -48#0 -48#1 -49 -50 54 -46 -10 -54 -55 -58 1 0 -39 -32 68 -37 -70 24 -30 4 -48#0 -48#1 -49 -50 -51 -52#0 -52#1 -53 -18 -9 21 -7 42 -18 -19 33 26 -62 -33 -34 -1 58 -14 -15#0 -15#1 -41 -50 54 -46 -10 -54 -51 -52#0 -52#1 -53 -18 -19 -39 -32 68 -37 -70 24 -30 4 -48#0 -48#1 -49 -50 -51 -52#0 -52#1 -59 -13 -14 -15#0 -15#1 -16 -28 -29#0 -29#1 -30 4 -48#0 -48#1 -49 -50 -51 -52#0 -52#1 -59"/>
    </vehicle>
    <vehicle id="veh108.0" depart="0.00" departPos="random" departSpeed="max" type="vehicle.mini.cooper_s">
        <route edges="4 -48#0 -48#1 -49 -50 -51 -52#0 -52#1 -59 -13 -14 -15#0 -15#1 -41 -50 54 -46 -10 -54 -55 -58 1 23 22#1 22#0 21 20 -13 -14 -15#0 -15#1 -41 -50 -51 -52#0 -52#1 -59 -13 -14 -15#0 -15#1 -41 -50 54 -46 -10 -54 -51 -52#0 -52#1 -59 -13 -58 1 23 22#1 22#0 21 20 -13 -14 -15#0 -15#1 -16 -28 -29#0 -29#1 27 -48#0 -48#1 -49 -50 -51 -52#0 -52#1 -53 -18 -19 33 26 -62 -33 -34 -1 58 -14 -15#0 -15#1 -16 -28 -29#0 -29#1 -30 4 -48#0 -48#1 -49 -50 -51 -52#0 -52#1 -53 -18 -9 21 20 -13 -58 1 23 22#1 22#0 21 20 -13 -58 1 23 22#1 22#0 21 20 -13 -58 1 23 22#1 22#0 21 -7 42 -18 -9 21 20 -13 -58 1 0 33 26 -62 -33 -39 -32 68 -37 -38 5 4 -48#0 -48#1 -49 -50 54 -46 -10 -54 -51 -52#0 -52#1 -59 -13 -14 -15#0 -15#1 -41 -50 54 -46 -10 -54 -55 -58 1 0 -39 -40 5 4 -48#0 -48#1 -49 -50 54 -46 -10 -54 -51 -52#0 -52#1 -53 -18 -9 21 -7 42 -18 -19 -39 -32 68 -37 -38 5 4 -48#0 -48#1 -49 -50 54 -46 -10 -54 -51 -52#0 -52#1 -59 -13 -58 1 23 22#1 22#0 21 20 -13 -14 -15#0 -15#1 -16 -28 -29#0 -29#1 -30 4 -48#0 -48#1 -49 -50 54 -46 -10 -54 -51 -52#0 -52#1 -53 -18 -19 -39 -40 5 4 -48#0 -48#1 -49 -50 54 -46 -10 -54 -51 -52#0 -52#1 -59 -13 -14 -15#0 -15#1 -16 -28 -29#0 -29#1 27 -48#0 -48#1 -49 -50 54 -46 -10 -54 -51 -52#0 -52#1 -53 -18 -19 33 26 -62 -33 -39 -40 5 4 -48#0 -48#1 -49 -50 54 -46 -10 -54 -51 -52#0 -52#1 -53 -18 -9 21 -7 42 -18 -9 21 -7 42 -18 -9 21 20 -13 -14 -15#0 -15#1 -16 -28 -29#0 -29#1 27 -48#0 -48#1 -49 -50 -51 -52#0 -52#1 -59 -13 -14 -15#0 -15#1 -41 -50 54 -46 -10 -54 -55 -58 1 23 22#1 22#0"/>
    </vehicle>
    <vehicle id="veh109.0" depart="0.00" departPos="random" departSpeed="max" type="vehicle.mini.cooper_s_2021">
        <route edges="-50 54 -46 -10 -54 -55 -58 1 0 -39 -40 5 4 -48#0 -48#1 -49 -50 54 -46 -10 -54 -51 -52#0 -52#1 -53 -18 -19 -39 -32 68 -37 -70 24 -30 4 -48#0 -48#1 -49 -50 54 -46 -10 -54 -55 -58 1 23 22#1 22#0 21 -7 42 -18 -19 -39 -32 68 -37 -70 24 -30 4 -48#0 -48#1 -49 -50 54 -46 -10 -54 -51 -52#0 -52#1 -53 -18 -9 21 -7 42 -18 -19 33 26 -62 -33 -39 -40 5 4 -48#0 -48#1 -49 -50 -51 -52#0 -52#1 -59 -13 -14 -15#0 -15#1 -16 -28 -29#0 -29#1 -30 4 -48#0 -48#1 -49 -50 -51 -52#0 -52#1 -59 -13 -58 1 0 -39 -32 68 -37 -70 24 -30 4 -48#0 -48#1 -49 -50 -51 -52#0 -52#1 -59 -13 -58 1 0 -39 -32 68 -37 -38 5 4 -48#0 -48#1 -49 -50 -51 -52#0 -52#1 -59 -13 -58 1 23 22#1 22#0 21 20 -13 -58 1 0 -39 -40 5 4 -48#0 -48#1 -49 -50 -51 -52#0 -52#1 -59 -13 -58 1 23 22#1 22#0 21 20 -13 -58 1 23 22#1 22#0 21 20 -13 -58 1 0 -39 -40 5 4 -48#0 -48#1 -49 -50 -51 -52#0 -52#1 -53 -18 -9 21 -7 42 -18 -9 21 -7 42 -18 -9 21 20 -13 -58 1 23 22#1 22#0 21 -7 42 -18 -9 21 20 -13 -58 1 0 33 26 -62 -33 -34 -1 58 -14 -15#0 -15#1 -16 -28 -29#0 -29#1 27 -48#0 -48#1 -49 -50 -51 -52#0 -52#1 -53 -18 -9 21 -7 42 -18 -9 21 20 -13 -14 -15#0 -15#1 -41 -50 54 -46 -10 -54 -55 -58 1 23 22#1 22#0 21 20 -13 -58 1 23 22#1 22#0 21 -7 42 -18 -9 21 20 -13 -14 -15#0 -15#1 -41 -50 -51 -52#0 -52#1 -59 -13 -14 -15#0 -15#1 -16 -28 -29#0 -29#1 -30 4 -48#0 -48#1 -49 -50 -51 -52#0 -52#1 -59 -13 -58 1 0 -39 -40 5 4 -48#0 -48#1 -49 -50 54 -46 -10 -54 -51 -52#0 -52#1 -59 -13 -14 -15#0 -15#1"/>
    </vehicle>
    <vehicle id="veh11.0" depart="0.00" departPos="random" departSpeed="max" type="vehicle.ford.ambulance">
        <route edges="22#0 21 -7 42 -18 -9 21 20 -13 -58 1 23 22#1 22#0 21 20 -13 -14 -15#0 -15#1 -16 -28 -29#0 -29#1 -30 4 -48#0 -48#1 -49 -50 54 -46 -10 -54 -51 -52#0 -52#1 -53 -18 -9 21 20 -13 -14 -15#0 -15#1 -16 -28 -29#0 -29#1 -30 4 -48#0 -48#1 -49 -50 -51 -52#0 -52#1 -59 -13 -14 -15#0 -15#1 -41 -50 54 -46 -10 -54 -55 -58 1 23 22#1 22#0 21 -7 42 -18 -9 21 -7 42 -18 -9 21 -7 42 -18 -9 21 20 -13 -58 1 0 -39 -40 5 4 -48#0 -48#1 -49 -50 -51 -52#0 -52#1 -59 -13 -14 -15#0 -15#1 -41 -50 54 -46 -10 -54 -51 -52#0 -52#1 -53 -18 -19 33 26 -62 -33 -34 -35 -8 -28 -29#0 -29#1 -30 4 -48#0 -48#1 -49 -50 54 -46 -10 -54 -51 -52#0 -52#1 -53 -18 -19 33 26 -62 -33 -34 -1 58 57 54 -46 -10 -54 -51 -52#0 -52#1 -53 -18 -19 33 26 -62 -33 -34 -1 58 -14 -15#0 -15#1 -16 -28 -29#0 -29#1 -30 4 -48#0 -48#1 -49 -50 54 -46 -10 -54 -51 -52#0 -52#1 -53 -18 -9 21 20 -13 -14 -15#0 -15#1 -41 -50 54 -46 -10 -54 -55 -58 1 0 33 26 -62 -33 -34 -35 -36 -37 -38 5 4 -48#0 -48#1 -49 -50 -51 -52#0 -52#1 -53 -18 -9 21 -7 42 -18 -9 21 -7 42 -18 -9 21 -7 42 -18 -19 33 26 -62 -33 -39 -32 68 -37 -38 5 4 -48#0 -48#1 -49 -50 -51 -52#0 -52#1 -53 -18 -9 21 20 -13 -14 -15#0 -15#1 -16 -28 -29#0 -29#1 27 -48#0 -48#1 -49 -50 54 -46 -10 -54 -51 -52#0 -52#1 -53 -18 -9 21 20 -13 -14 -15#0 -15#1 -16 -28 -29#0 -29#1 27 -48#0 -48#1 -49 -50 -51 -52#0 -52#1 -53 -18 -19 33 26 -62 -33 -39 -32 68 -37 -70 24 -30 4 -48#0 -48#1 -49 -50 54 -46 -10 -54 -55 -58 1 23 22#1 22#0 21 -7 42 -18 -19 33 26 -62 -33 -34 -1 58"/>
    </vehicle>
    <vehicle id="veh110.0" depart="0.00" departPos="random" departSpeed="max" type="vehicle.ford.mustang">
        <route edges="-29#1 27 -48#0 -48#1 -49 -50 54 -46 -10 -54 -51 -52#0 -52#1 -53 -18 -19 33 26 -62 -33 -34 -1 58 -14 -15#0 -15#1 -41 -50 -51 -52#0 -52#1 -59 -13 -14 -15#0 -15#1 -41 -50 -51 -52#0 -52#1 -53 -18 -19 33 26 -62 -33 -39 -32 68 -37 -38 5 4 -48#0 -48#1 -49 -50 -51 -52#0 -52#1 -59 -13 -58 1 0 33 26 -62 -33 -39 -40 5 4 -48#0 -48#1 -49 -50 -51 -52#0 -52#1 -59 -13 -14 -15#0 -15#1 -16 -28 -29#0 -29#1 27 -48#0 -48#1 -49 -50 54 -46 -10 -54 -51 -52#0 -52#1 -59 -13 -58 1 0 33 26 -62 -33 -39 -32 68 -37 -38 5 4 -48#0 -48#1 -49 -50 -51 -52#0 -52#1 -53 -18 -9 21 20 -13 -14 -15#0 -15#1 -41 -50 -51 -52#0 -52#1 -53 -18 -9 21 -7 42 -18 -9 21 20 -13 -58 1 0 -39 -32 68 -37 -70 24 -30 4 -48#0 -48#1 -49 -50 -51 -52#0 -52#1 -59 -13 -14 -15#0 -15#1 -41 -50 -51 -52#0 -52#1 -59 -13 -58 1 23 22#1 22#0 21 20 -13 -58 1 23 22#1 22#0 21 20 -13 -58 1 0 -39 -32 68 -37 -70 24 -30 4 -48#0 -48#1 -49 -50 54 -46 -10 -54 -55 -58 1 23 22#1 22#0 21 -7 42 -18 -19 33 26 -62 -33 -34 -1 58 -14 -15#0 -15#1 -16 -28 -29#0 -29#1 -30 4 -48#0 -48#1 -49 -50 -51 -52#0 -52#1 -53 -18 -9 21 20 -13 -58 1 0 33 26 -62 -33 -39 -40 5 4 -48#0 -48#1 -49 -50 54 -46 -10 -54 -51 -52#0 -52#1 -53 -18 -9 21 -7 42 -18 -19 33 26 -62 -33 -39 -40 5 4 -48#0 -48#1 -49 -50 54 -46 -10 -54 -51 -52#0 -52#1 -53 -18 -19 -39 -32 68 -37 -38 5 4 -48#0 -48#1 -49 -50 54 -46 -10 -54 -51 -52#0 -52#1 -53 -18 -19 33 26 -62 -33 -39 -32 68 -37 -38 5 4 -48#0 -48#1 -49 -50 -51 -52#0 -52#1 -53 -18 -9 21 -7 42 -18 -19 -39"/>
    </vehicle>
    <vehicle id="veh111.0" depart="0.00" departPos="random" departSpeed="max" type="vehicle.nissan.micra">
        <route edges="33 26 -62 -33 -34 -35 -36 -37 -70 24 -30 4 -48#0 -48#1 -49 -50 54 -46 -10 -54 -51 -52#0 -52#1 -53 -18 -9 21 20 -13 -14 -15#0 -15#1 -41 -50 54 -46 -10 -54 -51 -52#0 -52#1 -53 -18 -19 33 26 -62 -33 -39 -32 68 -37 -38 5 4 -48#0 -48#1 -49 -50 -51 -52#0 -52#1 -59 -13 -14 -15#0 -15#1 -41 -50 -51 -52#0 -52#1 -53 -18 -9 21 20 -13 -58 1 23 22#1 22#0 21 20 -13 -58 1 23 22#1 22#0 21 -7 42 -18 -19 -39 -32 68 -37 -70 24 -30 4 -48#0 -48#1 -49 -50 54 -46 -10 -54 -51 -52#0 -52#1 -53 -18 -19 33 26 -62 -33 -34 -35 -8 -28 -29#0 -29#1 -30 4 -48#0 -48#1 -49 -50 -51 -52#0 -52#1 -59 -13 -58 1 23 22#1 22#0 21 20 -13 -58 1 0 -39 -32 68 -37 -70 24 -30 4 -48#0 -48#1 -49 -50 54 -46 -10 -54 -55 -58 1 0 33 26 -62 -33 -39 -32 68 -37 -70 24 -30 4 -48#0 -48#1 -49 -50 -51 -52#0 -52#1 -53 -18 -19 -39 -40 5 4 -48#0 -48#1 -49 -50 -51 -52#0 -52#1 -59 -13 -58 1 23 22#1 22#0 21 20 -13 -14 -15#0 -15#1 -41 -50 -51 -52#0 -52#1 -59 -13 -14 -15#0 -15#1 -16 -28 -29#0 -29#1 -30 4 -48#0 -48#1 -49 -50 -51 -52#0 -52#1 -59 -13 -58 1 0 33 26 -62 -33 -39 -32 68 -37 -38 5 4 -48#0 -48#1 -49 -50 -51 -52#0 -52#1 -53 -18 -19 33 26 -62 -33 -34 -1 58 57 54 -46 -10 -54 -55 -58 1 23 22#1 22#0 21 -7 42 -18 -9 21 -7 42 -18 -9 21 20 -13 -58 1 0 -39 -40 5 4 -48#0 -48#1 -49 -50 -51 -52#0 -52#1 -59 -13 -58 1 0 -39 -32 68 -37 -70 24 -30 4 -48#0 -48#1 -49 -50 54 -46 -10 -54 -51 -52#0 -52#1 -53 -18 -9 21 -7 42 -18 -19 -39 -40 5 4 -48#0 -48#1 -49 -50 -51 -52#0 -52#1 -59 -13 -14"/>
    </vehicle>
    <vehicle id="veh112.0" depart="0.00" departPos="random" departSpeed="max" type="vehicle.nissan.patrol">
        <route edges="-51 -52#0 -52#1 -59 -13 -14 -15#0 -15#1 -16 -28 -29#0 -29#1 -30 4 -48#0 -48#1 -49 -50 54 -46 -10 -54 -55 -58 1 0 33 26 -62 -33 -34 -1 58 57 54 -46 -10 -54 -55 -58 1 23 22#1 22#0 21 -7 42 -18 -9 21 -7 42 -18 -19 33 26 -62 -33 -39 -40 5 4 -48#0 -48#1 -49 -50 54 -46 -10 -54 -55 -58 1 23 22#1 22#0 21 20 -13 -58 1 23 22#1 22#0 21 20 -13 -58 1 0 -39 -32 68 -37 -38 5 4 -48#0 -48#1 -49 -50 54 -46 -10 -54 -55 -58 1 0 33 26 -62 -33 -34 -35 -8 -28 -29#0 -29#1 -30 4 -48#0 -48#1 -49 -50 -51 -52#0 -52#1 -59 -13 -14 -15#0 -15#1 -41 -50 -51 -52#0 -52#1 -59 -13 -14 -15#0 -15#1 -41 -50 -51 -52#0 -52#1 -53 -18 -19 -39 -40 5 4 -48#0 -48#1 -49 -50 54 -46 -10 -54 -51 -52#0 -52#1 -53 -18 -19 -39 -32 68 -37 -38 5 4 -48#0 -48#1 -49 -50 -51 -52#0 -52#1 -59 -13 -14 -15#0 -15#1 -16 -28 -29#0 -29#1 -30 4 -48#0 -48#1 -49 -50 54 -46 -10 -54 -51 -52#0 -52#1 -53 -18 -9 21 20 -13 -14 -15#0 -15#1 -41 -50 54 -46 -10 -54 -51 -52#0 -52#1 -53 -18 -9 21 20 -13 -14 -15#0 -15#1 -16 -28 -29#0 -29#1 27 -48#0 -48#1 -49 -50 54 -46 -10 -54 -55 -58 1 0 -39 -32 68 -37 -70 24 -30 4 -48#0 -48#1 -49 -50 54 -46 -10 -54 -51 -52#0 -52#1 -53 -18 -19 -39 -40 5 4 -48#0 -48#1 -49 -50 -51 -52#0 -52#1 -53 -18 -9 21 20 -13 -14 -15#0 -15#1 -16 -28 -29#0 -29#1 -30 4 -48#0 -48#1 -49 -50 54 -46 -10 -54 -51 -52#0 -52#1 -53 -18 -9 21 20 -13 -58 1 0 33 26 -62 -33 -39 -40 5 4 -48#0 -48#1 -49 -50 54 -46 -10 -54 -55 -58 1 23 22#1 22#0 21 -7 42 -18 -9 21 -7 42 -18 -9 21 20 -13 -14 -15#0 -15#1 -41"/>
    </vehicle>
    <vehicle id="veh113.0" depart="0.00" departPos="random" departSpeed="max" type="vehicle.nissan.patrol_2021">
        <route edges="24 -30 4 -48#0 -48#1 -49 -50 54 -46 -10 -54 -55 -58 1 0 -39 -40 5 4 -48#0 -48#1 -49 -50 54 -46 -10 -54 -55 -58 1 0 -39 -40 5 4 -48#0 -48#1 -49 -50 -51 -52#0 -52#1 -59 -13 -58 1 23 22#1 22#0 21 20 -13 -58 1 23 22#1 22#0 21 -7 42 -18 -19 33 26 -62 -33 -34 -35 -36 -37 -38 5 4 -48#0 -48#1 -49 -50 -51 -52#0 -52#1 -59 -13 -14 -15#0 -15#1 -16 -28 -29#0 -29#1 27 -48#0 -48#1 -49 -50 54 -46 -10 -54 -55 -58 1 0 -39 -32 68 -37 -38 5 4 -48#0 -48#1 -49 -50 -51 -52#0 -52#1 -53 -18 -9 21 -7 42 -18 -9 21 -7 42 -18 -19 -39 -32 68 -37 -38 5 4 -48#0 -48#1 -49 -50 -51 -52#0 -52#1 -53 -18 -9 21 -7 42 -18 -9 21 -7 42 -18 -19 33 26 -62 -33 -34 -1 58 -14 -15#0 -15#1 -41 -50 -51 -52#0 -52#1 -53 -18 -9 21 20 -13 -58 1 23 22#1 22#0 21 -7 42 -18 -19 33 26 -62 -33 -34 -35 -8 -28 -29#0 -29#1 27 -48#0 -48#1 -49 -50 54 -46 -10 -54 -51 -52#0 -52#1 -53 -18 -19 33 26 -62 -33 -34 -35 -8 -28 -29#0 -29#1 27 -48#0 -48#1 -49 -50 -51 -52#0 -52#1 -53 -18 -19 33 26 -62 -33 -34 -1 58 57 54 -46 -10 -54 -51 -52#0 -52#1 -53 -18 -19 -39 -32 68 -37 -38 5 4 -48#0 -48#1 -49 -50 -51 -52#0 -52#1 -59 -13 -14 -15#0 -15#1 -16 -28 -29#0 -29#1 27 -48#0 -48#1 -49 -50 -51 -52#0 -52#1 -59 -13 -58 1 23 22#1 22#0 21 20 -13 -14 -15#0 -15#1 -16 -28 -29#0 -29#1 27 -48#0 -48#1 -49 -50 54 -46 -10 -54 -51 -52#0 -52#1 -59 -13 -58 1 23 22#1 22#0 21 -7 42 -18 -19 33 26 -62 -33 -34 -1 58 -14 -15#0 -15#1 -41 -50 54 -46 -10 -54 -55 -58 1 0 33 26 -62 -33 -34 -1 58 57 54 -46 -10 -54 -55"/>
    </vehicle>
    <vehicle id="veh114.0" depart="0.00" departPos="random" departSpeed="max" type="vehicle.seat.leon">