<?xml version='1.0' encoding='UTF-8'?>
<!-- generated on 2023-11-14 22:28:31.538139 by randomTrips.py v1_18_0+0000-03ecfdea036
<configuration>
    <net-file value="D:\Scripts\SUMO\generate_routes\net\Town10HD_C.net.xml"/>
    <output-trip-file value="D:\Scripts\SUMO\generate_routes\rou\Town10HD_ped.trips.xml"/>
    <pedestrians value="True"/>
    <persontrip.walk-opposite-factor value="0.8"/>
    <prefix value="ped"/>
    <seed value="43"/>
    <min-distance value="200.0"/>
    <max-distance value="700.0"/>
    <validate value="True"/>
    <end value="20.0"/>
    <period value="0.5"/>
</configuration>
-->
<!-- generated on 2023-11-14 22:28:31 by Eclipse SUMO duarouter Version 1.18.0
<configuration xmlns:xsi="http://www.w3.org/2001/XMLSchema-instance" xsi:noNamespaceSchemaLocation="http://sumo.dlr.de/xsd/duarouterConfiguration.xsd">

    <input>
        <net-file value="D:\Scripts\SUMO\generate_routes\net\Town10HD_C.net.xml"/>
        <route-files value="D:\Scripts\SUMO\generate_routes\rou\Town10HD_ped.trips.xml"/>
    </input>

    <output>
        <output-file value="D:\Scripts\SUMO\generate_routes\rou\Town10HD_ped.trips.xml.tmp"/>
        <alternatives-output value="NUL"/>
        <write-trips value="true"/>
    </output>

    <processing>
        <persontrip.walk-opposite-factor value="0.8"/>
    </processing>

    <time>
        <begin value="0.0"/>
        <end value="20.0"/>
    </time>

    <report>
        <no-warnings value="true"/>
        <ignore-errors value="true"/>
        <no-step-log value="true"/>
    </report>

</configuration>
-->
<routes xmlns:xsi="http://www.w3.org/2001/XMLSchema-instance" xsi:noNamespaceSchemaLocation="http://sumo.dlr.de/xsd/routes_file.xsd">
    <person id="ped0" depart="0.00" type="walker.pedestrian.0001">
        <personTrip from="-11" to="-6" walkFactor="0.75"/>
    </person>
    <person id="ped1" depart="0.50" type="walker.pedestrian.0002">
        <personTrip from="-11" to="5" walkFactor="0.75"/>
    </person>
    <person id="ped2" depart="1.00" type="walker.pedestrian.0007">
        <personTrip from="-18" to="-2" walkFactor="0.75"/>
    </person>
    <person id="ped3" depart="1.50" type="walker.pedestrian.0010">
        <personTrip from="-2" to="-6" walkFactor="0.75"/>
    </person>
    <person id="ped4" depart="2.00" type="walker.pedestrian.0015">
        <personTrip from="5" to="-2" walkFactor="0.75"/>
    </person>
    <person id="ped5" depart="2.50" type="walker.pedestrian.0021">
        <personTrip from="-2" to="-6" walkFactor="0.75"/>
    </person>
    <person id="ped6" depart="3.00" type="walker.pedestrian.0029">
        <personTrip from="-6" to="1" walkFactor="0.75"/>
    </person>
    <person id="ped7" depart="3.50" type="walker.pedestrian.0030">
        <personTrip from="5" to="-11" walkFactor="0.75"/>
    </person>
    <person id="ped8" depart="4.00" type="walker.pedestrian.0036">
        <personTrip from="-18" to="-11" walkFactor="0.75"/>
    </person>
    <person id="ped9" depart="4.50" type="walker.pedestrian.0040">
        <personTrip from="1" to="5" walkFactor="0.75"/>
    </person>
    <person id="ped10" depart="5.00" type="walker.pedestrian.0001">
        <personTrip from="-2" to="-6" walkFactor="0.75"/>
    </person>
    <person id="ped11" depart="5.50" type="walker.pedestrian.0002">
        <personTrip from="-6" to="-11" walkFactor="0.75"/>
    </person>
    <person id="ped12" depart="6.00" type="walker.pedestrian.0007">
        <personTrip from="-18" to="-11" walkFactor="0.75"/>
    </person>
    <person id="ped13" depart="6.50" type="walker.pedestrian.0010">
        <personTrip from="1" to="-6" walkFactor="0.75"/>
    </person>
    <person id="ped14" depart="7.00" type="walker.pedestrian.0015">
        <personTrip from="-11" to="-18" walkFactor="0.75"/>
    </person>
    <person id="ped15" depart="7.50" type="walker.pedestrian.0021">
        <personTrip from="-11" to="5" walkFactor="0.75"/>
    </person>
    <person id="ped16" depart="8.00" type="walker.pedestrian.0029">
        <personTrip from="-11" to="-6" walkFactor="0.75"/>
    </person>
    <person id="ped17" depart="8.50" type="walker.pedestrian.0030">
        <personTrip from="1" to="-6" walkFactor="0.75"/>
    </person>
    <person id="ped18" depart="9.00" type="walker.pedestrian.0036">
        <personTrip from="-11" to="5" walkFactor="0.75"/>
    </person>
    <person id="ped19" depart="9.50" type="walker.pedestrian.0040">
        <personTrip from="-6" to="1" walkFactor="0.75"/>
    </person>
    <person id="ped20" depart="10.00" type="walker.pedestrian.0001">
        <personTrip from="-18" to="-2" walkFactor="0.75"/>
    </person>
    <person id="ped21" depart="10.50" type="walker.pedestrian.0002">
        <personTrip from="-6" to="-11" walkFactor="0.75"/>
    </person>
    <person id="ped22" depart="11.00" type="walker.pedestrian.0007">
        <personTrip from="1" to="-6" walkFactor="0.75"/>
    </person>
    <person id="ped23" depart="11.50" type="walker.pedestrian.0010">
        <personTrip from="-18" to="1" walkFactor="0.75"/>
    </person>
    <person id="ped24" depart="12.00" type="walker.pedestrian.0015">
        <personTrip from="-2" to="-6" walkFactor="0.75"/>
    </person>
    <person id="ped25" depart="12.50" type="walker.pedestrian.0021">
        <personTrip from="-18" to="-2" walkFactor="0.75"/>
    </person>
    <person id="ped26" depart="13.00" type="walker.pedestrian.0029">
        <personTrip from="-6" to="-2" walkFactor="0.75"/>
    </person>
    <person id="ped27" depart="13.50" type="walker.pedestrian.0030">
        <personTrip from="1" to="-18" walkFactor="0.75"/>
    </person>
    <person id="ped28" depart="14.00" type="walker.pedestrian.0036">
        <personTrip from="-11" to="5" walkFactor="0.75"/>
    </person>
    <person id="ped29" depart="14.50" type="walker.pedestrian.0040">
        <personTrip from="-11" to="-6" walkFactor="0.75"/>
    </person>
    <person id="ped30" depart="15.00" type="walker.pedestrian.0001">
        <personTrip from="-6" to="-11" walkFactor="0.75"/>
    </person>
    <person id="ped31" depart="15.50" type="walker.pedestrian.0002">
        <personTrip from="5" to="-11" walkFactor="0.75"/>
    </person>
    <person id="ped32" depart="16.50" type="walker.pedestrian.0007">
        <personTrip from="1" to="-6" walkFactor="0.75"/>
    </person>
    <person id="ped33" depart="17.50" type="walker.pedestrian.0010">
        <personTrip from="1" to="5" walkFactor="0.75"/>
    </person>
    <person id="ped34" depart="18.00" type="walker.pedestrian.0015">
        <personTrip from="-11" to="5" walkFactor="0.75"/>
    </person>
    <person id="ped35" depart="18.50" type="walker.pedestrian.0021">
        <personTrip from="-18" to="-11" walkFactor="0.75"/>
    </person>
    <person id="ped36" depart="19.00" type="walker.pedestrian.0029">
        <personTrip from="-11" to="-18" walkFactor="0.75"/>
    </person>
    <person id="ped37" depart="19.50" type="walker.pedestrian.0030">
        <personTrip from="5" to="1" walkFactor="0.75"/>
    </person>
</routes>
