<?xml version='1.0' encoding='UTF-8'?>
<!-- generated on 2023-11-14 22:25:50 by Eclipse SUMO jtrrouter Version 1.18.0
<configuration xmlns:xsi="http://www.w3.org/2001/XMLSchema-instance" xsi:noNamespaceSchemaLocation="http://sumo.dlr.de/xsd/jtrrouterConfiguration.xsd">

    <input>
        <net-file value="D:\Scripts\SUMO\generate_routes\net\Town10HD_C.net.xml"/>
        <route-files value="D:\Scripts\SUMO\generate_routes\rou\Town10HD_veh.flows.xml"/>
    </input>

    <output>
        <output-file value="D:\Scripts\SUMO\generate_routes\rou\Town10HD_veh.rou.xml"/>
    </output>

    <processing>
        <turn-defaults value="25,50,25"/>
        <accept-all-destinations value="true"/>
        <allow-loops value="true"/>
    </processing>

    <report>
        <verbose value="true"/>
    </report>

    <random_number>
        <seed value="43"/>
    </random_number>

</configuration>
-->
<routes xmlns:xsi="http://www.w3.org/2001/XMLSchema-instance" xsi:noNamespaceSchemaLocation="http://sumo.dlr.de/xsd/routes_file.xsd">
    <vehicle id="veh0.0" depart="0.00" departPos="random" departSpeed="max" type="vehicle.audi.a2">
        <route edges="-12 -14 -20 9 -12 -14 -15 -7 2 1 -13 12 11 1 -5 -18 14 13 -5 -18 14 13 -5 -18 -20 -21 -3 6 -18 -15 6 5 4 -2 21 20 19 -6 -22 -20 9 11 1 -13 12 -9 -21 -3 -22 19 5 4 -2 -3 6 -18 -20 -21 -3 6 5 4 -2 21 20 -15 6 -18 -20 9 11 1 -13 12 -9 -21 -3 6 5 4 -2 21 20 -15 6 -18 14 13 -5 -18 -15 -7 21 20 19 -6 -22 19 5 4 -2 21 20 -15 6 -18 -15 6 -18 -15 6 -18 -20 9 11 1 -13 12 11 1 -13 -14 19 -6 -22 -20 9 -12 -14 19 5 4 -2 -3 -22 19 -6 -7 21 20 14 13 -5 -6 -22 -20 9 11 1 -13 12 11 1 -13 12 -9 -21 -3 6 5 4 -2 -3 -22 19 5 4 -2 21 20 14 13 -5 -6 -22 19 5 4 -2 21 20 14 13 -5 -6 -22 -20 9 11 1 -13 12 -9 -21 -3 6 5 4 -2 21 20 19 -6 -22 14 13 -5 -6 -22 -20 -21 -3 -22 -20 9 11 1 -5 -6 -22 -20 9 -12 -14 19 5 4 -2 21 20 14 13 -5 -18 -20 9 11 1 -13 -14 19 5 4 -2 -3 -22 -20 -21 -3 6 -18 14 13 -5 -18 -15 6 -18 14 13 -5 -6 -22 -20 9 11 1 -5 -6 -22 14 13 -5 -6 -22 19 -6 -22 -20 9 11 1 -13 -14 -20 9 11 1 -13 -14 -20 -21 -3 -22 14 13 -5 -6 -7 2 1 -13 12 -9 -21 -3 -22 14 13 -5 -18 -15 -7 21 20 14 13 -5 -18 -20 -21 -3 -22 14 13 -5 -18 -15 6 5 4 -2 21 20 -15 -7 21 20 -15 6 -18 14 13 -5 -6 -22 -20 9 11 1 -13 -14 -20 9 -12 -14 -15 6 5 4 -2 21 20 14 13 -5 -18 14 13 -5 -18 -15 -7 21 20 -15 6 -18"/>
    </vehicle>
    <vehicle id="veh1.0" depart="0.00" departPos="random" departSpeed="max" type="vehicle.audi.tt">
        <route edges="-15 -7 21 20 -15 -7 21 20 19 -6 -22 19 -6 -22 -20 9 11 1 -13 -14 -20 9 -12 -14 -20 9 11 1 -5 -18 14 13 -5 -18 -15 -7 2 -11 -9 -21 -3 -22 19 5 4 -2 21 20 19 -6 -22 19 5 4 -2 21 20 14 13 -5 -18 14 13 -5 -6 -22 14 13 -5 -18 -15 -7 21 20 19 -6 -7 21 20 14 13 -5 -18 14 13 -5 -6 -22 -20 9 11 1 -5 -18 -15 6 -18 14 13 -5 -18 -15 6 5 4 -2 21 20 14 13 -5 -6 -7 2 1 -13 -14 -20 9 -12 -14 -20 9 11 1 -13 12 -9 -21 -3 -22 19 -6 -22 19 5 4 -2 -3 -22 -20 9 -12 -14 -20 9 11 1 -13 -14 -20 -21 -3 -22 -20 9 11 1 -13 12 -9 -21 2 1 -5 -18 -20 -21 -3 -22 -20 -21 -3 6 -18 -15 6 5 4 -2 -3 6 -18 -15 6 -18 14 13 -5 -18 14 13 -5 -18 -20 9 -12 -14 -15 6 -18 14 13 -5 -6 -22 19 5 4 -2 21 20 14 13 -5 -6 -22 19 5 4 -2 -3 6 -18 14 13 -5 -18 -20 -21 -3 6 -18 -15 -7 21 20 -15 6 -18 14 13 -5 -18 -15 6 5 4 -2 -3 6 -18 -15 6 -18 -15 -7 21 20 19 -6 -7 21 20 19 5 4 -2 21 20 14 13 -5 -18 -20 9 11 1 -5 -18 -20 9 11 1 -5 -6 -7 2 -11 -9 -21 -3 6 -18 -15 6 -18 -15 6 5 4 -2 21 20 14 13 -5 -6 -7 2 -11 -9 -21 2 -11 -12 -14 -15 6 -18 -15 -7 21 20 19 -6 -22 -20 -21 -3 -22 14 13 -5 -18 -20 9 -12 -14 -20 -21 -3 6 -18 -15 -7 2 -11 -12 -14 -15 6 -18 14 13 -5 -18 -20 9 -12 -14 -15 6 5 4 -2 21 20 -15 -7 2 -11 -12 -14 -15 6 -18 14"/>
    </vehicle>
    <vehicle id="veh10.0" depart="0.00" departPos="random" departSpeed="max" type="vehicle.bmw.grandtourer">
        <route edges="-9 -21 2 -11 -9 -21 -3 6 -18 -20 9 -12 -14 -15 6 -18 -20 -21 -3 -22 -20 9 11 1 -13 12 -9 -21 -3 -22 -20 9 11 1 -5 -18 14 13 -5 -6 -22 14 13 -5 -18 -20 -21 -3 -22 -20 -21 -3 -22 -20 9 11 1 -13 12 11 1 -5 -18 14 13 -5 -18 -20 9 11 1 -5 -18 14 13 -5 -6 -22 19 5 4 -2 21 20 -15 6 -18 14 13 -5 -18 14 13 -5 -18 -15 6 -18 -15 -7 21 20 -15 6 -18 14 13 -5 -6 -22 19 5 4 -2 21 20 -15 6 5 4 -2 -3 6 -18 -15 6 -18 -20 9 11 1 -13 12 -9 -21 -3 -22 19 5 4 -2 -3 -22 -20 9 -12 -14 -15 6 -18 14 13 -5 -18 -15 6 5 4 -2 21 20 -15 6 5 4 -2 21 20 14 13 -5 -18 -15 6 -18 -20 9 11 1 -5 -18 14 13 -5 -6 -7 21 20 14 13 -5 -18 -15 -7 21 20 19 5 4 -2 21 20 14 13 -5 -18 14 13 -5 -18 -15 6 -18 -15 -7 2 -11 -9 -21 -3 -22 -20 9 11 1 -5 -6 -22 19 -6 -22 19 5 4 -2 21 20 -15 -7 2 -11 -12 -14 -20 9 11 1 -5 -18 -15 6 5 4 -2 -3 -22 -20 -21 -3 6 5 4 -2 -3 -22 -20 9 -12 -14 19 -6 -22 19 5 4 -2 21 20 14 13 -5 -18 -20 -21 -3 6 5 4 -2 21 20 19 5 4 -2 21 20 19 -6 -22 14 13 -5 -6 -22 19 5 4 -2 -3 -22 19 5 4 -2 -3 -22 14 13 -5 -6 -22 -20 -21 -3 6 -18 14 13 -5 -6 -7 2 -11 -9 -21 2 1 -13 -14 -15 6 5 4 -2 21 20 -15 6 -18 -20 -21 2 -11 -9 -21 -3 6 5 4 -2 21 20 14 13 -5 -18 14 13 -5 -6 -22 19 5 4 -2 21 20"/>
    </vehicle>
    <vehicle id="veh11.0" depart="0.00" departPos="random" departSpeed="max" type="vehicle.chevrolet.impala">
        <route edges="2 1 -13 12 11 1 -13 -14 -15 -7 21 20 14 13 -5 -18 -15 6 -18 -20 9 11 1 -13 12 -9 -21 -3 6 -18 -20 9 11 1 -5 -18 14 13 -5 -18 -15 6 -18 -15 6 -18 -15 6 5 4 -2 -3 6 -18 14 13 -5 -18 -15 -7 2 1 -5 -18 -20 9 11 1 -5 -18 14 13 -5 -6 -7 21 20 -15 6 5 4 -2 21 20 -15 6 -18 14 13 -5 -18 -20 9 11 1 -5 -18 -15 -7 21 20 14 13 -5 -6 -22 19 -6 -7 2 -11 -9 -21 -3 6 5 4 -2 -3 -22 -20 9 11 1 -5 -6 -7 2 1 -13 12 -9 -21 2 1 -13 12 11 1 -13 12 -9 -21 -3 -22 -20 9 11 1 -13 -14 19 5 4 -2 21 20 14 13 -5 -6 -22 19 5 4 -2 21 20 14 13 -5 -6 -7 21 20 19 -6 -22 19 5 4 -2 21 20 19 5 4 -2 21 20 14 13 -5 -6 -7 21 20 14 13 -5 -18 14 13 -5 -18 -20 -21 -3 -22 19 5 4 -2 21 20 14 13 -5 -6 -22 -20 -21 -3 -22 -20 9 11 1 -5 -18 -15 6 -18 -15 6 -18 -20 9 -12 -14 19 -6 -22 -20 9 11 1 -13 12 -9 -21 -3 -22 19 5 4 -2 21 20 14 13 -5 -6 -7 21 20 14 13 -5 -6 -7 21 20 14 13 -5 -18 -20 -21 2 1 -13 -14 -20 9 11 1 -13 -14 19 -6 -22 -20 9 11 1 -5 -6 -22 19 5 4 -2 -3 -22 14 13 -5 -18 -20 9 11 1 -5 -18 14 13 -5 -6 -7 21 20 19 5 4 -2 21 20 19 5 4 -2 21 20 14 13 -5 -18 -15 6 -18 14 13 -5 -18 -20 -21 -3 6 -18 -15 6 -18 -15 6 -18 14 13 -5 -18 14 13 -5 -18 14 13 -5 -18 -15 6 -18 -15 -7 21 20 -15 6 -18"/>
    </vehicle>
    <vehicle id="veh12.0" depart="0.00" departPos="random" departSpeed="max" type="vehicle.citroen.c3">
        <route edges="-9 -21 -3 6 5 4 -2 21 20 14 13 -5 -18 -15 -7 21 20 14 13 -5 -18 -15 6 -18 -15 6 -18 14 13 -5 -6 -22 -20 -21 -3 6 -18 -20 -21 -3 -22 19 5 4 -2 21 20 -15 -7 2 -11 -9 -21 -3 -22 -20 9 -12 -14 -15 6 -18 -15 6 5 4 -2 -3 -22 -20 -21 2 -11 -9 -21 -3 -22 19 -6 -7 2 -11 -9 -21 2 1 -13 12 11 1 -5 -18 -20 9 11 1 -5 -18 -20 9 -12 -14 19 5 4 -2 21 20 19 5 4 -2 -3 -22 19 5 4 -2 -3 -22 -20 9 11 1 -13 -14 19 5 4 -2 -3 6 5 4 -2 -3 6 -18 14 13 -5 -18 -15 6 -18 -20 -21 -3 -22 -20 -21 2 -11 -12 -14 -20 9 11 1 -13 -14 -20 9 11 1 -5 -18 14 13 -5 -6 -22 14 13 -5 -18 -15 6 -18 -15 -7 21 20 19 5 4 -2 21 20 19 5 4 -2 21 20 14 13 -5 -18 -15 6 5 4 -2 -3 6 -18 -15 6 5 4 -2 -3 6 -18 14 13 -5 -18 -15 6 -18 14 13 -5 -18 -15 6 -18 -15 -7 21 20 19 -6 -22 19 5 4 -2 21 20 -15 -7 21 20 14 13 -5 -18 -20 -21 -3 6 5 4 -2 -3 6 5 4 -2 21 20 14 13 -5 -6 -22 14 13 -5 -6 -7 21 20 -15 6 -18 -15 -7 21 20 14 13 -5 -6 -22 -20 -21 -3 -22 -20 9 11 1 -5 -6 -22 19 -6 -22 14 13 -5 -18 14 13 -5 -18 -20 -21 -3 -22 19 5 4 -2 -3 -22 14 13 -5 -18 -15 6 5 4 -2 -3 -22 14 13 -5 -18 -15 6 -18 -15 6 -18 14 13 -5 -18 -15 6 5 4 -2 21 20 -15 6 5 4 -2 21 20 19 -6 -22 -20 9 -12 -14 -20 -21 -3 6 -18 14 13 -5 -6 -22 19 5"/>
    </vehicle>
    <vehicle id="veh13.0" depart="0.00" departPos="random" departSpeed="max" type="vehicle.jeep.wrangler_rubicon">
        <route edges="-3 -22 -20 9 11 1 -13 12 -9 -21 -3 -22 19 5 4 -2 -3 6 -18 14 13 -5 -6 -22 19 5 4 -2 -3 6 -18 -15 -7 21 20 14 13 -5 -18 -20 9 11 1 -13 12 -9 -21 -3 6 -18 14 13 -5 -18 -15 6 -18 14 13 -5 -18 -15 6 -18 -15 -7 21 20 -15 6 5 4 -2 -3 -22 19 -6 -7 21 20 14 13 -5 -6 -22 14 13 -5 -18 -20 -21 -3 -22 -20 -21 -3 -22 -20 9 11 1 -13 12 -9 -21 -3 -22 19 5 4 -2 21 20 19 -6 -22 -20 -21 -3 -22 14 13 -5 -18 -15 6 5 4 -2 21 20 -15 6 5 4 -2 21 20 -15 6 -18 -20 9 11 1 -13 -14 -20 -21 -3 6 -18 -15 6 -18 14 13 -5 -18 14 13 -5 -18 -20 -21 -3 -22 14 13 -5 -18 -20 9 11 1 -5 -18 -20 9 11 1 -13 12 -9 -21 2 1 -13 12 11 1 -13 -14 -15 -7 21 20 14 13 -5 -18 -15 -7 2 -11 -9 -21 2 -11 -12 -14 19 5 4 -2 21 20 14 13 -5 -6 -22 19 -6 -7 21 20 -15 -7 21 20 -15 6 -18 -15 6 -18 -20 9 11 1 -5 -18 -15 -7 21 20 -15 6 -18 -20 9 -12 -14 19 5 4 -2 21 20 -15 -7 2 1 -5 -18 14 13 -5 -18 -20 9 -12 -14 19 5 4 -2 21 20 -15 6 5 4 -2 21 20 -15 6 -18 -20 9 11 1 -13 12 -9 -21 -3 6 5 4 -2 21 20 14 13 -5 -18 14 13 -5 -18 14 13 -5 -18 -15 -7 2 1 -13 12 -9 -21 2 -11 -9 -21 -3 6 -18 14 13 -5 -18 -15 6 -18 -15 -7 2 -11 -9 -21 -3 -22 19 5 4 -2 21 20 14 13 -5 -6 -7 21 20 14 13 -5 -18 -15 6 -18 -15 -7 2 -11 -9 -21 -3 -22 14 13 -5"/>
    </vehicle>
    <vehicle id="veh14.0" depart="0.00" departPos="random" departSpeed="max" type="vehicle.lincoln.mkz_2017">
        <route edges="-12 -14 -20 9 -12 -14 19 5 4 -2 21 20 -15 -7 21 20 14 13 -5 -18 -15 -7 2 1 -13 -14 19 -6 -22 19 5 4 -2 21 20 -15 6 -18 14 13 -5 -6 -22 19 5 4 -2 -3 6 -18 -20 9 11 1 -5 -18 -15 6 5 4 -2 21 20 19 -6 -22 19 5 4 -2 -3 6 -18 14 13 -5 -6 -22 -20 -21 -3 -22 -20 9 11 1 -5 -6 -7 21 20 14 13 -5 -18 14 13 -5 -18 14 13 -5 -6 -22 19 -6 -7 21 20 19 5 4 -2 21 20 -15 6 -18 14 13 -5 -18 -15 -7 2 -11 -9 -21 -3 -22 19 -6 -22 19 -6 -22 -20 9 11 1 -13 -14 19 5 4 -2 21 20 -15 -7 21 20 -15 -7 2 -11 -12 -14 -20 9 11 1 -13 12 11 1 -13 12 -9 -21 -3 -22 19 5 4 -2 -3 6 -18 14 13 -5 -18 14 13 -5 -6 -7 21 20 -15 6 -18 -15 6 5 4 -2 21 20 14 13 -5 -18 -15 6 5 4 -2 21 20 14 13 -5 -18 -15 6 -18 -20 9 11 1 -13 12 -9 -21 2 -11 -9 -21 -3 -22 14 13 -5 -18 -15 6 5 4 -2 21 20 14 13 -5 -18 -15 -7 21 20 -15 6 -18 -20 9 -12 -14 -20 9 11 1 -5 -18 14 13 -5 -18 -20 9 -12 -14 19 5 4 -2 21 20 -15 6 -18 -20 9 -12 -14 -20 9 11 1 -5 -18 14 13 -5 -18 14 13 -5 -18 -15 6 5 4 -2 -3 6 5 4 -2 21 20 14 13 -5 -6 -22 -20 9 11 1 -5 -18 -15 -7 21 20 19 5 4 -2 21 20 -15 6 -18 14 13 -5 -6 -22 19 5 4 -2 21 20 19 -6 -7 21 20 -15 6 5 4 -2 21 20 14 13 -5 -18 -20 9 11 1 -13 -14 19 5 4 -2 21 20 -15 -7 2 -11"/>
    </vehicle>
    <vehicle id="veh15.0" depart="0.00" departPos="random" departSpeed="max" type="vehicle.lincoln.mkz_2020">
        <route edges="21 20 -15 6 5 4 -2 21 20 19 -6 -22 19 -6 -22 -20 9 11 1 -5 -18 14 13 -5 -18 14 13 -5 -18 -15 6 5 4 -2 21 20 -15 6 -18 14 13 -5 -18 -15 6 -18 -15 -7 2 -11 -9 -21 -3 6 -18 14 13 -5 -6 -22 19 5 4 -2 21 20 19 5 4 -2 21 20 14 13 -5 -18 -15 6 5 4 -2 -3 -22 14 13 -5 -6 -22 -20 9 -12 -14 19 5 4 -2 21 20 -15 6 5 4 -2 21 20 -15 6 -18 14 13 -5 -6 -22 -20 9 11 1 -13 -14 -15 -7 21 20 19 5 4 -2 21 20 14 13 -5 -6 -22 19 -6 -22 19 -6 -7 21 20 -15 6 -18 14 13 -5 -18 14 13 -5 -18 14 13 -5 -18 -15 6 5 4 -2 -3 -22 -20 9 11 1 -13 12 -9 -21 2 -11 -9 -21 -3 -22 -20 -21 2 -11 -9 -21 2 1 -13 12 11 1 -13 12 -9 -21 -3 -22 -20 9 11 1 -13 12 11 1 -13 -14 -15 -7 21 20 14 13 -5 -18 14 13 -5 -18 -20 9 -12 -14 -20 9 11 1 -5 -18 14 13 -5 -18 -20 9 11 1 -13 -14 -20 9 -12 -14 -20 -21 2 -11 -12 -14 -15 -7 2 1 -5 -18 -15 6 -18 14 13 -5 -18 14 13 -5 -18 14 13 -5 -18 14 13 -5 -18 -20 9 11 1 -13 12 -9 -21 2 -11 -9 -21 -3 6 -18 14 13 -5 -18 -20 -21 2 -11 -9 -21 2 -11 -9 -21 -3 -22 -20 -21 -3 -22 19 5 4 -2 -3 -22 -20 9 -12 -14 -20 9 -12 -14 19 -6 -22 19 -6 -7 21 20 -15 6 5 4 -2 21 20 -15 6 -18 -15 6 5 4 -2 21 20 14 13 -5 -18 -15 -7 2 -11 -9 -21 -3 6 -18 -20 9 11 1 -13 12 -9 -21 -3 -22 -20 -21 -3 -22 -20 -21 -3 6"/>
    </vehicle>
    <vehicle id="veh16.0" depart="0.00" departPos="random" departSpeed="max" type="vehicle.mercedes.coupe">
        <route edges="4 -2 21 20 19 -6 -22 19 5 4 -2 21 20 14 13 -5 -6 -7 21 20 14 13 -5 -18 14 13 -5 -18 14 13 -5 -6 -22 -20 9 11 1 -13 12 -9 -21 -3 6 5 4 -2 -3 -22 19 5 4 -2 21 20 14 13 -5 -18 -15 -7 2 -11 -12 -14 19 5 4 -2 -3 -22 19 -6 -7 21 20 14 13 -5 -6 -22 -20 9 11 1 -13 -14 -20 9 11 1 -13 -14 -15 6 -18 -15 -7 2 -11 -9 -21 2 1 -5 -18 -15 -7 21 20 19 5 4 -2 21 20 19 5 4 -2 -3 6 -18 -20 9 11 1 -5 -18 14 13 -5 -18 14 13 -5 -18 -15 -7 21 20 14 13 -5 -18 14 13 -5 -18 -15 -7 21 20 14 13 -5 -6 -7 21 20 19 -6 -7 21 20 -15 6 5 4 -2 21 20 -15 6 -18 -15 6 -18 -20 9 11 1 -13 12 11 1 -5 -18 -15 6 -18 -15 -7 2 1 -13 -14 19 5 4 -2 21 20 -15 -7 21 20 14 13 -5 -18 -15 -7 21 20 -15 6 5 4 -2 21 20 -15 6 -18 -15 6 -18 14 13 -5 -18 14 13 -5 -18 -20 -21 -3 6 5 4 -2 -3 -22 14 13 -5 -18 -15 -7 21 20 19 5 4 -2 21 20 19 5 4 -2 -3 -22 19 5 4 -2 -3 -22 19 5 4 -2 21 20 -15 6 -18 -15 6 -18 14 13 -5 -18 -20 9 -12 -14 19 5 4 -2 21 20 -15 6 5 4 -2 21 20 14 13 -5 -6 -22 14 13 -5 -18 -15 6 -18 -15 6 -18 14 13 -5 -18 -15 -7 21 20 14 13 -5 -18 -15 6 -18 -15 -7 21 20 14 13 -5 -18 -20 -21 -3 6 -18 14 13 -5 -6 -22 19 -6 -7 2 -11 -9 -21 -3 6 -18 14 13 -5 -18 -15 -7 21 20 -15 -7 21 20 14 13 -5 -18 14"/>
    </vehicle>
    <vehicle id="veh17.0" depart="0.00" departPos="random" departSpeed="max" type="vehicle.mercedes.coupe_2020">
        <route edges="-13 12 -9 -21 2 -11 -12 -14 -15 6 -18 -15 6 -18 14 13 -5 -18 14 13 -5 -18 -20 -21 2 -11 -9 -21 2 -11 -9 -21 -3 6 -18 -15 6 5 4 -2 21 20 -15 6 -18 14 13 -5 -18 -20 -21 -3 -22 -20 9 11 1 -13 12 11 1 -13 12 -9 -21 2 1 -13 -14 19 -6 -22 -20 -21 -3 -22 19 -6 -22 14 13 -5 -6 -22 -20 9 11 1 -5 -6 -22 14 13 -5 -6 -7 21 20 14 13 -5 -18 14 13 -5 -18 14 13 -5 -18 14 13 -5 -6 -22 19 5 4 -2 -3 -22 19 5 4 -2 -3 -22 19 5 4 -2 21 20 14 13 -5 -6 -22 19 5 4 -2 21 20 14 13 -5 -18 -20 9 -12 -14 -15 6 -18 14 13 -5 -18 14 13 -5 -6 -7 21 20 -15 -7 21 20 19 5 4 -2 21 20 19 -6 -7 2 -11 -12 -14 -20 -21 -3 -22 19 5 4 -2 21 20 19 5 4 -2 -3 -22 -20 -21 -3 6 -18 14 13 -5 -18 14 13 -5 -18 -15 6 -18 14 13 -5 -18 -15 6 -18 14 13 -5 -18 -15 6 -18 -20 9 11 1 -13 12 11 1 -5 -18 -15 -7 21 20 14 13 -5 -18 -15 -7 2 -11 -9 -21 -3 6 -18 -15 6 -18 14 13 -5 -18 14 13 -5 -18 14 13 -5 -18 -20 -21 2 1 -5 -18 14 13 -5 -18 -20 9 -12 -14 -20 9 11 1 -13 -14 19 5 4 -2 -3 -22 -20 -21 -3 6 -18 -15 6 -18 -15 -7 21 20 14 13 -5 -18 -15 6 5 4 -2 21 20 14 13 -5 -6 -7 2 -11 -12 -14 -15 6 5 4 -2 -3 -22 14 13 -5 -18 14 13 -5 -18 -15 6 -18 -15 6 -18 -15 6 -18 14 13 -5 -18 -15 6 -18 14 13 -5 -18 -15 6 5 4 -2 21 20 19 5 4 -2 -3 6 5"/>
    </vehicle>
    <vehicle id="veh18.0" depart="0.00" departPos="random" departSpeed="max" type="vehicle.mercedes.sprinter">
        <route edges="11 1 -5 -18 -15 -7 21 20 -15 -7 2 1 -13 12 -9 -21 2 -11 -12 -14 19 5 4 -2 21 20 -15 6 5 4 -2 21 20 19 5 4 -2 21 20 -15 6 -18 14 13 -5 -18 -20 9 11 1 -5 -18 -15 6 -18 14 13 -5 -18 -15 -7 21 20 19 -6 -22 -20 9 -12 -14 -15 6 -18 14 13 -5 -18 14 13 -5 -6 -22 -20 9 -12 -14 -20 9 11 1 -13 12 -9 -21 2 1 -13 -14 -20 -21 -3 6 -18 -15 6 5 4 -2 21 20 19 5 4 -2 21 20 19 5 4 -2 -3 -22 14 13 -5 -18 14 13 -5 -6 -22 14 13 -5 -18 -15 6 5 4 -2 21 20 14 13 -5 -18 14 13 -5 -18 -20 -21 -3 6 -18 -20 9 11 1 -13 12 11 1 -13 12 -9 -21 -3 6 -18 -20 9 11 1 -13 12 11 1 -13 12 11 1 -13 12 -9 -21 -3 6 -18 14 13 -5 -18 -15 -7 21 20 -15 -7 21 20 14 13 -5 -6 -22 -20 9 11 1 -13 12 -9 -21 2 1 -13 12 -9 -21 -3 -22 -20 9 11 1 -13 -14 -15 -7 21 20 -15 6 -18 -20 9 -12 -14 19 5 4 -2 -3 -22 -20 9 -12 -14 -20 9 11 1 -13 12 11 1 -5 -18 14 13 -5 -18 14 13 -5 -6 -22 -20 9 -12 -14 -15 -7 2 -11 -9 -21 -3 -22 19 5 4 -2 -3 -22 19 5 4 -2 -3 -22 -20 9 11 1 -5 -18 14 13 -5 -18 -15 6 5 4 -2 21 20 14 13 -5 -18 -20 9 11 1 -13 12 -9 -21 -3 6 5 4 -2 -3 -22 19 5 4 -2 -3 -22 14 13 -5 -6 -22 19 5 4 -2 -3 6 -18 -20 9 11 1 -13 -14 19 5 4 -2 21 20 -15 -7 21 20 19 5 4 -2 21 20 14 13 -5 -6 -22 -20 -21 2 1 -13"/>
    </vehicle>
    <vehicle id="veh19.0" depart="0.00" departPos="random" departSpeed="max" type="vehicle.mini.cooper_s">
        <route edges="14 13 -5 -18 -15 -7 21 20 14 13 -5 -6 -22 -20 -21 -3 -22 19 5 4 -2 -3 -22 -20 9 11 1 -13 -14 19 5 4 -2 21 20 14 13 -5 -18 14 13 -5 -6 -7 21 20 -15 6 -18 -15 -7 21 20 19 5 4 -2 21 20 19 5 4 -2 21 20 14 13 -5 -18 14 13 -5 -18 -15 6 -18 -15 -7 21 20 -15 6 -18 -15 -7 21 20 14 13 -5 -6 -22 -20 9 11 1 -13 12 -9 -21 2 -11 -9 -21 2 -11 -12 -14 -20 9 11 1 -13 -14 -15 6 -18 14 13 -5 -18 -15 -7 21 20 14 13 -5 -18 -20 -21 -3 -22 19 5 4 -2 21 20 14 13 -5 -18 14 13 -5 -6 -22 14 13 -5 -6 -7 2 -11 -9 -21 -3 6 5 4 -2 21 20 -15 6 5 4 -2 21 20 14 13 -5 -6 -22 -20 9 -12 -14 -20 9 11 1 -13 12 -9 -21 -3 -22 -20 9 11 1 -13 -14 19 -6 -22 -20 -21 2 -11 -12 -14 -20 9 11 1 -13 12 11 1 -13 12 11 1 -5 -18 -20 9 11 1 -13 -14 19 5 4 -2 -3 6 5 4 -2 21 20 14 13 -5 -18 14 13 -5 -18 -20 9 -12 -14 19 5 4 -2 -3 -22 -20 9 11 1 -13 12 -9 -21 -3 -22 -20 9 11 1 -5 -6 -22 -20 9 11 1 -5 -18 14 13 -5 -18 -20 9 -12 -14 -20 9 11 1 -13 12 -9 -21 2 -11 -9 -21 -3 -22 14 13 -5 -18 -15 -7 21 20 -15 6 5 4 -2 21 20 14 13 -5 -18 14 13 -5 -6 -22 19 5 4 -2 21 20 -15 6 -18 -15 6 5 4 -2 -3 -22 19 -6 -22 19 -6 -7 21 20 -15 6 -18 14 13 -5 -18 14 13 -5 -18 -15 -7 2 1 -13 -14 -20 -21 -3 6 5 4 -2 21 20 14 13 -5 -18 -20"/>
    </vehicle>
    <vehicle id="veh2.0" depart="0.00" departPos="random" departSpeed="max" type="vehicle.mini.cooper_s_2021">
        <route edges="13 -5 -18 -15 6 -18 14 13 -5 -18 -15 6 -18 -15 6 5 4 -2 -3 -22 19 5 4 -2 21 20 -15 -7 21 20 14 13 -5 -18 -15 -7 21 20 -15 6 -18 -15 6 -18 14 13 -5 -18 -15 6 -18 -15 6 -18 14 13 -5 -18 -20 9 11 1 -13 -14 19 5 4 -2 21 20 14 13 -5 -18 -15 6 -18 -20 9 11 1 -13 -14 -15 6 -18 -15 6 -18 -15 6 5 4 -2 21 20 -15 6 -18 14 13 -5 -6 -22 19 -6 -7 21 20 -15 6 -18 -20 9 11 1 -5 -18 14 13 -5 -6 -7 21 20 14 13 -5 -6 -7 2 -11 -12 -14 19 5 4 -2 21 20 14 13 -5 -18 -15 6 -18 14 13 -5 -18 -15 -7 21 20 19 5 4 -2 21 20 19 -6 -22 -20 9 11 1 -5 -18 14 13 -5 -18 -15 -7 21 20 19 5 4 -2 21 20 -15 6 -18 14 13 -5 -18 -15 6 -18 14 13 -5 -18 -20 -21 -3 -22 19 5 4 -2 21 20 -15 -7 2 -11 -9 -21 2 -11 -12 -14 -15 6 -18 14 13 -5 -6 -7 2 1 -13 12 11 1 -5 -18 -20 -21 -3 -22 19 5 4 -2 21 20 -15 6 5 4 -2 -3 6 -18 14 13 -5 -18 -15 6 5 4 -2 21 20 19 5 4 -2 -3 -22 14 13 -5 -18 14 13 -5 -18 14 13 -5 -18 -20 9 -12 -14 -20 9 11 1 -13 12 -9 -21 -3 -22 14 13 -5 -6 -7 21 20 -15 -7 21 20 -15 -7 2 1 -5 -18 -15 -7 21 20 -15 6 5 4 -2 -3 -22 14 13 -5 -18 -15 -7 21 20 -15 6 -18 14 13 -5 -18 14 13 -5 -18 14 13 -5 -18 -20 9 11 1 -13 -14 19 -6 -22 14 13 -5 -18 14 13 -5 -6 -22 -20 9 -12 -14 -20 9 11 1 -13 -14 -20 9 -12 -14"/>
    </vehicle>
    <vehicle id="veh20.0" depart="0.00" departPos="random" departSpeed="max" type="vehicle.ford.ambulance">
        <route edges="12 11 1 -13 -14 19 5 4 -2 -3 -22 14 13 -5 -18 -15 6 5 4 -2 21 20 14 13 -5 -18 -15 6 5 4 -2 -3 6 -18 -20 -21 -3 -22 14 13 -5 -18 14 13 -5 -18 14 13 -5 -18 -20 9 -12 -14 19 5 4 -2 -3 -22 -20 -21 2 -11 -12 -14 -15 6 5 4 -2 21 20 19 5 4 -2 21 20 -15 6 -18 -15 -7 21 20 -15 6 -18 -15 -7 21 20 14 13 -5 -18 -15 6 5 4 -2 21 20 14 13 -5 -6 -22 -20 9 -12 -14 -20 -21 -3 6 -18 -15 6 -18 -15 -7 2 1 -13 12 11 1 -13 -14 19 5 4 -2 21 20 -15 6 -18 -20 9 -12 -14 19 -6 -22 14 13 -5 -6 -7 21 20 -15 -7 21 20 19 5 4 -2 21 20 19 5 4 -2 -3 6 -18 -15 6 -18 -20 -21 2 1 -5 -18 14 13 -5 -18 -15 6 5 4 -2 -3 -22 -20 9 11 1 -13 -14 19 5 4 -2 21 20 -15 6 -18 14 13 -5 -6 -7 2 -11 -9 -21 -3 -22 -20 -21 2 -11 -9 -21 -3 -22 -20 -21 -3 -22 -20 9 -12 -14 -20 9 11 1 -5 -18 14 13 -5 -18 -15 6 -18 -15 -7 21 20 -15 6 -18 -15 -7 2 -11 -12 -14 -15 6 -18 -15 -7 21 20 14 13 -5 -6 -22 -20 9 11 1 -5 -6 -22 -20 9 11 1 -5 -18 -20 9 -12 -14 -20 9 -12 -14 -20 9 -12 -14 -15 6 -18 14 13 -5 -6 -22 -20 9 11 1 -13 -14 19 -6 -22 19 5 4 -2 21 20 14 13 -5 -18 -20 -21 -3 6 -18 14 13 -5 -6 -7 21 20 19 -6 -22 -20 9 11 1 -13 -14 -15 6 5 4 -2 21 20 14 13 -5 -6 -22 14 13 -5 -18 -15 6 -18 -20 -21 2 -11 -12 -14 -15 6 -18 -15 6 -18 14 13 -5"/>
    </vehicle>
    <vehicle id="veh21.0" depart="0.00" departPos="random" departSpeed="max" type="vehicle.ford.mustang">
        <route edges="5 4 -2 -3 6 -18 -15 -7 21 20 19 -6 -22 -20 -21 -3 -22 -20 9 11 1 -5 -18 14 13 -5 -18 14 13 -5 -18 14 13 -5 -18 14 13 -5 -18 14 13 -5 -6 -22 14 13 -5 -18 14 13 -5 -18 -20 9 -12 -14 19 -6 -7 21 20 19 5 4 -2 21 20 -15 6 5 4 -2 21 20 -15 6 -18 -15 6 5 4 -2 21 20 -15 6 -18 14 13 -5 -6 -7 21 20 14 13 -5 -18 -20 9 11 1 -5 -6 -22 19 5 4 -2 -3 -22 14 13 -5 -6 -22 14 13 -5 -6 -22 -20 9 -12 -14 -20 9 11 1 -13 12 -9 -21 -3 6 -18 -15 6 -18 -20 9 11 1 -13 12 -9 -21 -3 -22 19 -6 -22 -20 9 -12 -14 -15 6 5 4 -2 21 20 -15 -7 21 20 19 -6 -22 19 5 4 -2 -3 6 -18 -15 6 5 4 -2 21 20 19 5 4 -2 -3 -22 19 -6 -22 19 -6 -7 2 1 -13 12 -9 -21 -3 -22 -20 9 11 1 -5 -6 -22 19 5 4 -2 21 20 -15 -7 2 -11 -9 -21 -3 -22 -20 9 11 1 -13 -14 19 5 4 -2 21 20 19 5 4 -2 21 20 -15 6 5 4 -2 21 20 14 13 -5 -18 14 13 -5 -6 -22 14 13 -5 -18 -15 6 -18 -15 6 -18 -15 -7 21 20 14 13 -5 -6 -22 14 13 -5 -6 -22 -20 9 11 1 -13 12 11 1 -13 12 -9 -21 -3 -22 19 5 4 -2 -3 6 5 4 -2 21 20 14 13 -5 -18 14 13 -5 -6 -22 19 -6 -22 19 5 4 -2 21 20 -15 6 -18 -15 6 -18 -15 6 -18 14 13 -5 -18 -20 9 11 1 -5 -18 -15 -7 21 20 14 13 -5 -6 -7 21 20 -15 6 -18 -15 6 -18 14 13 -5 -6 -22 -20 9 11 1 -5 -18 14 13 -5 -18 14"/>
    </vehicle>
    <vehicle id="veh22.0" depart="0.00" departPos="random" departSpeed="max" type="vehicle.nissan.micra">
        <route edges="-9 -21 2 -11 -12 -14 -20 9 11 1 -5 -6 -22 14 13 -5 -18 -20 -21 -3 -22 -20 -21 -3 -22 -20 9 -12 -14 19 5 4 -2 21 20 -15 6 -18 -20 -21 2 -11 -9 -21 2 -11 -12 -14 -15 6 -18 -20 -21 2 1 -5 -18 14 13 -5 -18 -15 6 5 4 -2 21 20 14 13 -5 -18 14 13 -5 -18 -15 -7 21 20 -15 -7 21 20 14 13 -5 -18 14 13 -5 -18 -20 9 -12 -14 -15 -7 21 20 -15 6 -18 14 13 -5 -18 -15 6 5 4 -2 21 20 -15 6 -18 -15 -7 21 20 14 13 -5 -6 -22 -20 -21 -3 6 -18 -20 9 11 1 -5 -18 14 13 -5 -18 -15 6 5 4 -2 21 20 14 13 -5 -18 -20 -21 -3 6 -18 -15 -7 21 20 14 13 -5 -18 -15 6 5 4 -2 21 20 -15 6 5 4 -2 21 20 -15 6 -18 -15 6 -18 14 13 -5 -18 -15 6 5 4 -2 -3 -22 19 5 4 -2 21 20 19 5 4 -2 21 20 19 5 4 -2 21 20 19 5 4 -2 -3 -22 -20 9 11 1 -13 12 -9 -21 -3 -22 19 5 4 -2 -3 -22 -20 9 11 1 -13 12 11 1 -13 12 -9 -21 -3 6 5 4 -2 -3 -22 19 5 4 -2 21 20 14 13 -5 -18 14 13 -5 -18 -20 9 -12 -14 19 5 4 -2 -3 -22 -20 -21 2 -11 -9 -21 -3 -22 19 -6 -22 19 5 4 -2 -3 -22 19 5 4 -2 21 20 19 5 4 -2 -3 6 -18 -15 6 5 4 -2 21 20 -15 -7 21 20 14 13 -5 -18 -15 6 5 4 -2 21 20 14 13 -5 -6 -22 -20 -21 2 1 -5 -18 -20 -21 2 1 -13 12 11 1 -13 -14 19 -6 -22 19 -6 -22 19 -6 -22 14 13 -5 -18 14 13 -5 -18 14 13 -5 -18 -20 9 -12 -14 -15"/>
    </vehicle>
    <vehicle id="veh23.0" depart="0.00" departPos="random" departSpeed="max" type="vehicle.nissan.patrol">
        <route edges="-15 -7 21 20 -15 6 -18 -20 -21 -3 -22 19 5 4 -2 21 20 19 -6 -22 19 5 4 -2 21 20 -15 -7 21 20 -15 6 -18 14 13 -5 -18 -15 -7 21 20 14 13 -5 -6 -7 21 20 -15 6 -18 14 13 -5 -6 -7 21 20 14 13 -5 -18 -15 6 -18 14 13 -5 -6 -7 21 20 -15 -7 2 -11 -9 -21 -3 -22 14 13 -5 -18 -15 6 -18 -15 -7 2 -11 -9 -21 -3 -22 14 13 -5 -6 -22 19 5 4 -2 21 20 14 13 -5 -18 -20 9 11 1 -13 12 -9 -21 -3 -22 19 5 4 -2 21 20 19 5 4 -2 -3 6 5 4 -2 21 20 19 5 4 -2 21 20 -15 6 -18 -15 -7 21 20 -15 6 5 4 -2 21 20 14 13 -5 -6 -22 -20 -21 -3 6 5 4 -2 21 20 14 13 -5 -18 14 13 -5 -6 -22 -20 9 11 1 -5 -18 -15 6 -18 -20 -21 2 -11 -12 -14 -20 9 11 1 -13 -14 19 5 4 -2 21 20 19 5 4 -2 21 20 -15 -7 2 1 -13 -14 -15 6 -18 -15 -7 21 20 -15 6 -18 -15 -7 21 20 14 13 -5 -6 -7 2 1 -13 -14 -20 9 11 1 -13 12 -9 -21 2 -11 -12 -14 -15 6 -18 14 13 -5 -18 -20 -21 -3 -22 -20 9 11 1 -13 -14 19 5 4 -2 -3 -22 -20 9 -12 -14 19 -6 -22 14 13 -5 -6 -7 21 20 14 13 -5 -6 -7 21 20 -15 -7 21 20 14 13 -5 -6 -7 2 -11 -12 -14 -20 9 -12 -14 19 5 4 -2 21 20 -15 6 -18 -20 -21 2 1 -13 12 11 1 -5 -6 -22 -20 9 11 1 -13 12 -9 -21 -3 -22 19 -6 -7 21 20 -15 6 5 4 -2 21 20 -15 -7 2 1 -13 12 -9 -21 2 -11 -9 -21 2 1 -5 -6 -22 -20 9 11 1"/>
    </vehicle>
    <vehicle id="veh24.0" depart="0.00" departPos="random" departSpeed="max" type="vehicle.nissan.patrol_2021">
        <route edges="2 -11 -9 -21 2 1 -13 12 -9 -21 -3 -22 19 -6 -7 21 20 19 5 4 -2 21 20 14 13 -5 -6 -7 2 -11 -9 -21 2 -11 -9 -21 -3 -22 -20 9 -12 -14 19 -6 -7 21 20 19 5 4 -2 21 20 -15 -7 21 20 14 13 -5 -18 -15 6 -18 -20 9 11 1 -13 -14 -20 -21 2 -11 -9 -21 2 -11 -9 -21 2 -11 -12 -14 -20 9 11 1 -13 -14 -20 9 11 1 -5 -18 -20 9 11 1 -13 12 -9 -21 -3 -22 19 -6 -22 19 -6 -22 19 5 4 -2 -3 6 5 4 -2 21 20 -15 6 -18 -15 -7 21 20 14 13 -5 -18 14 13 -5 -18 14 13 -5 -18 14 13 -5 -18 14 13 -5 -18 14 13 -5 -6 -22 14 13 -5 -18 -15 -7 2 -11 -12 -14 19 5 4 -2 -3 -22 -20 9 -12 -14 -20 9 -12 -14 -20 9 -12 -14 -20 9 11 1 -5 -6 -22 -20 9 -12 -14 -20 9 11 1 -13 12 -9 -21 2 -11 -12 -14 19 -6 -22 14 13 -5 -6 -22 -20 9 -12 -14 19 5 4 -2 -3 -22 -20 9 11 1 -13 -14 19 5 4 -2 21 20 19 5 4 -2 -3 -22 19 5 4 -2 21 20 14 13 -5 -6 -22 -20 9 11 1 -5 -18 -20 9 11 1 -13 -14 -20 9 11 1 -13 -14 -20 9 11 1 -13 12 -9 -21 -3 -22 14 13 -5 -18 -15 -7 2 1 -5 -6 -22 19 5 4 -2 21 20 14 13 -5 -18 14 13 -5 -6 -22 19 5 4 -2 -3 -22 19 -6 -22 19 5 4 -2 21 20 19 5 4 -2 -3 -22 14 13 -5 -6 -22 19 5 4 -2 -3 -22 -20 9 11 1 -13 12 -9 -21 -3 6 -18 -20 9 11 1 -5 -18 -20 -21 2 1 -5 -18 -20 9 11 1 -13 12 11 1 -5 -18 14 13 -5 -6 -22 -20"/>
    </vehicle>
    <vehicle id="veh25.0" depart="0.00" departPos="random" departSpeed="max" type="vehicle.seat.leon">
        <route edges="11 1 -5 -18 -15 6 -18 -20 9 -12 -14 -15 6 -18 14 13 -5 -18 14 13 -5 -18 -15 6 -18 -15 6 5 4 -2 21 20 14 13 -5 -18 14 13 -5 -6 -22 14 13 -5 -18 14 13 -5 -18 -15 6 5 4 -2 21 20 -15 -7 2 1 -13 12 -9 -21 -3 -22 -20 -21 -3 -22 19 5 4 -2 21 20 -15 6 -18 14 13 -5 -18 14 13 -5 -18 14 13 -5 -18 -20 9 -12 -14 -20 -21 -3 -22 19 -6 -22 19 5 4 -2 21 20 14 13 -5 -18 -15 6 -18 -15 -7 21 20 -15 6 -18 14 13 -5 -18 -15 6 -18 -15 -7 2 1 -5 -18 -15 -7 2 -11 -9 -21 2 -11 -9 -21 -3 6 5 4 -2 21 20 14 13 -5 -18 14 13 -5 -6 -22 -20 9 11 1 -13 12 11 1 -5 -18 14 13 -5 -18 -15 6 -18 -20 9 11 1 -13 -14 -15 6 5 4 -2 21 20 14 13 -5 -18 -15 6 5 4 -2 -3 -22 14 13 -5 -18 -20 -21 -3 6 -18 -20 9 11 1 -5 -18 -20 9 11 1 -5 -18 -20 9 -12 -14 19 -6 -22 19 5 4 -2 21 20 14 13 -5 -18 -20 9 11 1 -13 12 -9 -21 -3 -22 -20 9 11 1 -13 -14 19 -6 -7 21 20 19 -6 -22 -20 -21 -3 -22 -20 -21 -3 -22 19 5 4 -2 -3 -22 -20 -21 -3 -22 -20 -21 -3 -22 19 5 4 -2 -3 -22 -20 9 -12 -14 19 5 4 -2 21 20 19 5 4 -2 21 20 14 13 -5 -18 -15 6 5 4 -2 21 20 19 5 4 -2 21 20 14 13 -5 -18 14 13 -5 -18 14 13 -5 -18 -15 6 -18 -15 6 -18 -20 -21 -3 6 -18 14 13 -5 -18 -15 -7 21 20 14 13 -5 -18 -20 9 -12 -14 -20 9 -12 -14 -15 -7 2 -11 -12 -14 -20 -21 2 -11"/>
    </vehicle>
    <vehicle id="veh26.0" depart="0.00" departPos="random" departSpeed="max" type="vehicle.volkswagen.t2">
        <route edges="-18 -20 9 11 1 -13 12 -9 -21 -3 -22 14 13 -5 -18 -15 6 5 4 -2 21 20 19 -6 -7 21 20 14 13 -5 -18 -15 -7 21 20 -15 6 -18 14 13 -5 -18 14 13 -5 -6 -22 19 5 4 -2 -3 6 -18 -20 9 11 1 -13 12 11 1 -13 12 -9 -21 -3 6 -18 -20 9 -12 -14 -15 6 5 4 -2 21 20 19 5 4 -2 -3 -22 14 13 -5 -18 -20 -21 2 1 -13 12 -9 -21 -3 -22 -20 -21 -3 -22 14 13 -5 -18 14 13 -5 -18 -20 9 11 1 -13 12 -9 -21 -3 -22 14 13 -5 -18 -15 6 -18 -15 6 -18 -15 6 -18 14 13 -5 -6 -22 -20 9 -12 -14 -20 9 -12 -14 19 5 4 -2 -3 -22 19 5 4 -2 -3 -22 -20 9 -12 -14 -20 9 -12 -14 19 -6 -22 14 13 -5 -6 -22 -20 -21 -3 -22 -20 9 -12 -14 -15 6 -18 -15 -7 2 -11 -12 -14 19 5 4 -2 21 20 14 13 -5 -6 -22 14 13 -5 -18 14 13 -5 -18 -15 6 -18 14 13 -5 -6 -7 2 1 -13 12 -9 -21 -3 6 -18 14 13 -5 -18 -20 -21 -3 -22 19 -6 -22 -20 -21 -3 6 5 4 -2 21 20 -15 6 -18 -20 -21 -3 -22 19 5 4 -2 -3 -22 -20 9 11 1 -13 -14 19 5 4 -2 -3 -22 14 13 -5 -18 -20 9 11 1 -13 -14 -15 6 5 4 -2 -3 6 -18 -15 -7 2 1 -13 -14 -15 -7 21 20 14 13 -5 -18 14 13 -5 -18 -15 6 -18 -20 9 11 1 -5 -18 14 13 -5 -6 -22 19 -6 -22 19 5 4 -2 21 20 -15 6 -18 -20 -21 -3 6 5 4 -2 21 20 14 13 -5 -18 -15 6 -18 -20 9 -12 -14 -15 -7 21 20 19 5 4 -2 -3 -22 19 5 4 -2 21 20 14 13 -5 -18 -15 6"/>
    </vehicle>
    <vehicle id="veh27.0" depart="0.00" departPos="random" departSpeed="max" type="vehicle.dodge.charger_2020">
        <route edges="9 11 1 -13 -14 19 -6 -22 19 -6 -22 -20 9 -12 -14 -15 6 -18 -20 -21 2 1 -13 12 11 1 -13 -14 19 5 4 -2 -3 -22 -20 -21 2 1 -13 12 -9 -21 2 1 -13 12 -9 -21 -3 -22 19 5 4 -2 -3 6 -18 -15 6 -18 -15 6 5 4 -2 21 20 19 5 4 -2 -3 -22 -20 9 11 1 -5 -18 -20 -21 2 -11 -9 -21 -3 6 -18 -15 6 5 4 -2 21 20 -15 6 5 4 -2 21 20 19 5 4 -2 21 20 -15 6 5 4 -2 -3 6 -18 -15 6 -18 14 13 -5 -18 14 13 -5 -18 -15 6 -18 -15 6 5 4 -2 21 20 -15 6 -18 -15 6 -18 14 13 -5 -18 -15 6 5 4 -2 -3 6 5 4 -2 -3 6 -18 14 13 -5 -6 -7 21 20 14 13 -5 -18 -15 6 -18 14 13 -5 -18 14 13 -5 -18 -15 6 -18 14 13 -5 -18 14 13 -5 -18 -20 9 11 1 -13 12 -9 -21 -3 -22 -20 -21 2 -11 -9 -21 -3 6 5 4 -2 21 20 -15 6 5 4 -2 21 20 14 13 -5 -6 -22 -20 9 11 1 -5 -18 -15 -7 2 -11 -9 -21 2 1 -13 -14 19 -6 -22 14 13 -5 -18 14 13 -5 -18 -20 9 11 1 -13 12 -9 -21 2 1 -13 -14 -15 -7 2 -11 -12 -14 -20 -21 2 1 -13 -14 -20 9 -12 -14 19 5 4 -2 21 20 14 13 -5 -6 -22 -20 9 -12 -14 -15 -7 21 20 19 5 4 -2 21 20 -15 6 -18 -20 -21 -3 -22 -20 9 11 1 -13 12 11 1 -13 -14 -15 -7 21 20 -15 6 -18 -15 6 5 4 -2 -3 -22 19 5 4 -2 21 20 19 5 4 -2 21 20 14 13 -5 -18 14 13 -5 -18 -15 6 -18 -15 6 5 4 -2 21 20 19 5 4 -2 21 20 -15 -7 2"/>
    </vehicle>
    <vehicle id="veh28.0" depart="0.00" departPos="random" departSpeed="max" type="vehicle.dodge.charger_police">