<?xml version='1.0' encoding='UTF-8'?>
<!-- generated on 2023-11-13 21:09:33 by Eclipse SUMO jtrrouter Version 1.18.0
<configuration xmlns:xsi="http://www.w3.org/2001/XMLSchema-instance" xsi:noNamespaceSchemaLocation="http://sumo.dlr.de/xsd/jtrrouterConfiguration.xsd">

    <input>
        <net-file value="D:\Scripts\SUMO\generate_routes\net\Town05_C.net.xml"/>
        <route-files value="D:\Scripts\SUMO\generate_routes\rou\Town05_veh.flows.xml"/>
    </input>

    <output>
        <output-file value="D:\Scripts\SUMO\generate_routes\rou\Town05_veh.rou.xml"/>
    </output>

    <processing>
        <turn-defaults value="25,50,25"/>
        <accept-all-destinations value="true"/>
        <allow-loops value="true"/>
    </processing>

    <report>
        <verbose value="true"/>
    </report>

    <random_number>
        <seed value="44"/>
    </random_number>

</configuration>
-->
<routes xmlns:xsi="http://www.w3.org/2001/XMLSchema-instance" xsi:noNamespaceSchemaLocation="http://sumo.dlr.de/xsd/routes_file.xsd">
    <vehicle id="veh0.0" depart="0.00" departPos="random" departSpeed="max" type="vehicle.audi.a2">
        <route edges="-47 0 39 31 -29 -0 -18 -22 -23 -43 2 -50 -23 -43 -3 -11 24 42 -51 -23 -24 11 3 43 23 51 41 40 17 46 45 8 4 45 -9 -10 3 -44 -45 -46 -7 -5 -50 51 41 21 28 27 37 35 -27 20 48 31 -21 -22 51 41 21 28 27 37 35 37 -13 -14 33 -39 25 -6 -47 0 -26 -30 -39 -0 17 6 33 31 -21 -41 -51 -52 -2 43 -24 11 3 -44 -9 -10 3 -44 -45 -4 -5 1 0 -26 -30 -48 19 13 -36 -38 -36 -38 -36 -27 20 19 13 -36 -27 -28 -21 -22 -52 1 17 6 33 -39 -0 17 6 33 -48 -20 -28 -21 -22 -52 -2 43 23 -52 49 4 45 8 -5 1 17 46 45 -9 -10 3 -44 8 4 45 8 4 45 8 -5 1 0 25 33 31 -29 39 -32 -16 39 31 -29 25 -6 -7 -8 44 43 42 -51 22 -41 -51 -52 -2 -44 8 4 45 8 -5 -50 -23 -24 11 10 9 44 2 49 -8 -9 -10 -11 24 -43 -3 -11 24 42 41 -22 -52 49 -8 -9 -10 3 43 23 22 21 -30 -48 19 13 35 37 -13 -14 -6 -47 0 -26 28 27 -38 -13 -14 33 31 28 27 -38 -13 -14 33 -48 19 13 35 -27 -28 -29 -0 17 6 15 -19 -20 -28 -21 -41 -51 22 40 -1 -2 43 -24 11 3 43 -24 11 10 9 44 -3 -11 24 -43 2 1 17 46 -4 -5 -2 43 -24 11 3 43 23 51 41 -22 -52 49 7 46 45 -9 -10 3 -44 8 4 -46 6 33 -39 -0 17 46 -4 -5 -2 -3 -11 24 42 -51 -23 -43 -44 8 -5 1 -18 -41 -51 22 -41 -51 -23 -24 11 10 9 8 4 -46 -7 4 45 44 2 1 17 -7 -8 -45 -4 7 46 -4 -5 1 -18 21 -29 25 33 31 28 27 37 -13 -14 -16 39 -48 19 13 -36 -38 -36 -27 -28 -30 -32 -16 -26 -30 -39 -0 -1 -50 -23 42 -51 22 -41 -51 -23 -24 11 3 43 23 22 -41 -42 -24 11 3 -44 -45 -46 -7 -5 1 17 -7 4 45 8 -5 -50 51 41 -22 -52 1 -18 -22 -23 42 -51 22 40 -1 -50 22 21 -30 -48 19 13 -36 -27 20 48 -32 -16 -0 -1 -50 -23 -24 11 3 43 -24 11 3 43 42 -51 -23 -43 -3 -11 24 23 51 41 21 -30 -48 19 13 -36 -27 20 48 -39 -0 17 -7 4 45 -9 -10 3 -44 -45 -4 -8 -45 -46 -7 -5 1 0 39 -32 -16 -0 -18 -22 51 41 21 -30 -32 -16 39 31 28 27 -38 -13 -14 -6 46 -4 -8 44 -3 10 9 44 43 23 -52 -2 -3 -11 24 -43 2 -50 51 41 40 0 25 33 -48 19 13 35 -27 20 19 13 -36 -27 -28 -21 -41 -42 23 -52 -2 -44 -9 -10 -11 24 -43 2 -50 51 41 40 0 25 33 31 28 27 -38 -36 -27 20 19 13 35 37 35 37 -13 -14 33 -48 19 13 -36 -27 -28 -29 25 33 -39 25 -6 -7 -8 -45 -4 7 46 -4 7 46 -4 7 6 15 -19 48 -32 -16 -0 -1 -50 51 41 -22 -52 1 -18 -22 51 41 -22 -52 1 0 25 15 13 -36 -27 20 48 -32 -6 46 -4 -8 -45 -4 -8 44 2 1 -18 -22 -23 -24 11 3 2 49 -8 -45 -46 -47 0 39 31 -29 39 -32 -16 -26 -21 -41 -51 22 21 -30 -39 -0 17 6 15 -19 -20 -28 -21 -22 51 41 -22 -23 -43 -3 -11 24 42 -51 22 -41 -51 22 21 -29 25 33 -48 -20 -28 -30 -32 -16 -0 17 6 33 -48 19 13 -36 -27 20 19 13 -36 -27 20 48 31 28 27 -38 -13 -14 -16 -0 -1 -2 43 23 22 -41 -51 22 40 17 46 -4 7 -47 -1 -50 -23 -24 11 3 2 -50 22 40 0 39 -32 -16 -0 -18 -41 -51 -23 42 41 21 28 27 37 35 37 -13 -14 -16 39 -48 -20 -28 -21 -41 -42 -43 2 1 -18 21 -30 -39 -26 28 27 -38 -13 -14 -6 -47 0 -26 -30 -48 19 13 -36 -38 -36 -27 20 48 -39 25 -6 46 -4 -5 1 0 39 -32 -6 -47 -1 49 4 45 8 7 46 45 8 -5 1 17 6 -16 39 -48 19 13 -36 -27 -28 -30 -32 -6 46 -4 -8 44 2 49 -8 -45 -4 7 -47 0 25 -6 -7 4 45 8 7 46 45 8 7 46 -4 7 -47 0 39 -32 -6 -47 0 39 -32 -16 -0 -1 -50 22 40 -1 49 7 6 -16 -0 17 6 15 13 -36 -27 20 48 -39 -0 -1 -50 -23 -43 2 -50 -23 -43 2 1 17 46 -4 -8 44 43 42 -51 -23 -43 -44 -45 -4 -8 -45 -46 6 -16 39 -48 19 13 35 -27 -28 -29 -0 -18 -22 -52 1 0 25 15 13 -36 -27 -28 -30 -32 -6 46 -4 -5 -2 -44 -9 -10 3 -44 8 -5 -2 -44 -45 -4 -5 -2 43 -24 11 3 43 23 51 41 40 0 -26 -30 -32 15 -19 48 31 28 27 37 -13 -14 -6 -47 -1 49 -8 -9 -10 3 -44 8 -5 -2 43 23 -52 49 -8 -9 -10 3 -44 -9 -10 -11 24 42 -51 -52 1 0 25 33 -48 -20 -28 -21 40 0 25 -6 -47 0 39 -32 15 -19 -20 -28 -21 40 -1 -50 -23 42 41 21 -30 -39 -26 -21 -41 -51 -23 42 -51 22 -41 -51 -23 -24 11 3 43 23 51 -42 23 22 21 -29 39 -48 -20 -28 -29 39 -48 19 13 -36 -27 -28 -29 -0 -1 -50 51 41 21 -29 39 -48 19 13 -36 -27 20 19 13 -36 -27 -28 -30 -48 19 13 -36 -27 20 48 31 28 27 -38 -13 -14 33 31 -29 -0 -1 -50 51 41 21 -29 39 -32 -6 -47 0 25 33 -48 19 13 -36 -27 20 48 -39 -26 -30 -48 19 13 -36 -38 -13 -14 -6 -7 -5 -50 -23 -24 11 3 -44 8 7 -47 0 25 33 -39 -26 28 27 -38 -13 -14 33 -39 -0 17 46 -4 -5"/>
    </vehicle>
    <vehicle id="veh1.0" depart="0.00" departPos="random" departSpeed="max" type="vehicle.audi.tt">
        <route edges="42 41 -22 51 41 21 -29 -0 17 46 -4 -5 -2 -44 -9 -10 3 -44 -9 -10 3 43 23 22 40 17 -7 4 45 8 4 -46 -7 -5 1 17 46 -4 -5 1 17 -7 4 45 8 7 -47 -1 49 -8 44 43 23 -52 49 -8 -45 -4 -5 1 17 -7 -8 44 43 -24 11 3 43 23 -52 1 17 -7 -5 1 17 46 -4 7 -47 -18 -41 -51 22 40 -1 49 7 46 -4 7 6 15 13 35 37 35 -27 20 48 -32 -6 46 -4 -5 -50 22 -41 -51 -52 49 -8 -45 -4 7 6 33 -48 19 13 -36 -27 20 48 31 28 27 -38 -36 -27 20 48 31 28 27 -38 -13 -14 -16 -26 -30 -32 -6 46 -4 7 6 15 -19 -20 -28 -30 -39 -0 17 -7 4 45 8 -5 1 17 6 33 -48 -20 -28 -30 -48 19 13 -36 -27 20 48 -32 -6 -7 4 45 44 -3 10 9 8 4 45 8 4 -46 6 15 -19 48 31 -21 -22 -52 -2 -44 -9 -10 -11 24 42 -51 22 40 0 -26 -21 -22 -52 -2 43 23 -52 1 17 -7 -5 -2 -44 8 4 45 8 -5 -50 22 -41 -51 -52 1 17 6 -16 -26 -30 -39 -0 -18 21 -30 -39 -26 28 27 -38 -36 -27 -28 -21 -22 51 -42 -43 -3 -11 24 23 -52 1 -18 -22 51 41 21 -30 -48 19 13 -36 -27 -28 -21 -22 -52 -2 -3 -11 24 42 41 -22 51 -42 -24 11 10 9 -45 -46 -7 -8 44 -3 10 9 8 -5 1 -18 21 -30 -32 -6 -47 0 39 -32 -16 39 -48 19 13 -36 -27 20 48 -32 -6 -47 -1 -2 43 42 -51 -52 1 17 -7 -5 -2 -3 10 9 44 2 49 -8 -45 -46 6 -16 39 -48 -20 -28 -29 -0 -18 -22 -23 -43 -44 -45 -46 -7 -8 -45 -4 -8 -45 -4 -5 -2 43 -24 11 3 2 -50 22 -41 -51 22 40 17 -7 -8 -45 -4 -5 -2 -44 8 7 -47 0 39 31 -29 -0 -1 49 7 -47 0 -26 -21 40 0 25 15 13 35 37 35 -27 20 48 -39 -26 -21 -22 -23 42 -51 -52 1 17 -7 -8 -9 -10 3 -44 8 -5 -2 -44 -9 -10 -11 24 23 22 -41 -51 -23 42 -51 22 -41 -51 -23 42 41 40 -1 -50 51 41 -22 -23 42 -51 -23 -43 -3 -11 24 23 51 41 40 17 -7 -8 -45 -46 -7 4 45 8 -5 -2 43 23 22 -41 -51 -23 -24 11 3 43 23 -52 1 -18 -41 -51 22 21 -29 -0 -1 -2 43 23 51 -42 23 51 41 21 -30 -32 -16 -0 -1 -2 -3 10 9 44 43 -24 11 3 43 42 -51 -52 49 -8 -9 -10 -11 24 -43 -3 10 9 44 43 42 41 40 0 39 -48 -20 -28 -21 40 0 39 -32 15 -19 48 -39 -0 17 -7 -5 1 -18 -22 -52 49 7 46 45 8 4 45 -9 -10 -11 24 42 -51 22 -41 -42 23 51 41 40 -1 49 -8 44 43 23 -52 -2 -44 8 4 45 44 2 -50 22 -41 -51 -23 -43 -44 8 -5 -2 -44 -9 -10 3 2 49 7 6 15 -19 -20 -28 -30 -39 -0 17 -7 4 45 8 4 45 8 -5 -50 22 -41 -51 -23 -43 -44 -9 -10 -11 24 -43 -44 8 4 45 8 -5 1 0 39 -48 19 13 -36 -38 -13 -14 -16 -0 -1 -2 43 -24 11 3 43 23 51 41 -22 -23 -24 11 10 9 44 2 -50 -23 -24 11 3 -44 -9 -10 3 2 -50 -23 42 -51 -23 42 -51 22 -41 -42 -43 -3 -11 24 42 -51 -23 -24 11 10 9 -45 -46 6 -16 -26 -30 -48 19 13 -36 -38 -36 -27 -28 -21 40 0 39 -48 -20 -28 -29 39 -48 -20 -28 -30 -32 -6 -47 0 25 -6 -47 -1 49 4 -46 -7 -5 -2 -3 -11 24 42 -51 22 -41 -42 23 -52 49 -8 -45 -4 7 46 45 44 2 1 17 6 33 31 -21 -41 -42 -43 2 1 -18 -41 -51 22 40 17 46 -4 7 6 -16 -0 17 6 15 -19 48 31 28 27 37 35 -27 20 48 -39 25 33 31 28 27 -38 -36 -27 20 19 13 -36 -27 20 48 -39 -26 -30 -39 -0 -18 21 28 27 -38 -13 -14 -6 -7 -8 -45 -46 -7 -8 -45 -4 7 6 -16 -0 -18 -22 51 -42 23 -52 49 7 46 45 -9 -10 3 -44 8 4 45 -9 -10 -11 24 -43 -44 -45 -4 -8 -45 -46 6 15 -19 48 31 28 27 37 -13 -14 -16 39 -48 -20 -28 -29 39 -32 -6 -47 -1 -50 51 41 -22 -23 -43 2 -50 -23 42 -51 22 21 -29 -0 17 -7 -5 -2 -3 10 9 -45 -4 7 -47 -1 49 -8 44 43 42 41 21 -29 39 -48 19 13 -36 -27 -28 -21 -41 -51 -52 1 -18 -41 -51 -23 42 41 21 -29 -0 17 6 -16 39 31 28 27 -38 -13 -14 -16 -0 -1 -50 51 41 -22 -52 -2 -44 -9 -10 3 2 49 7 6 -16 -0 17 -7 -5 -50 -23 -43 -3 -11 24 -43 -44 8 4 -46 6 33 -48 19 13 -36 -38 -13 -14 -6 -7 -8 -9 -10 3 -44 8 4 45 8 7 46 -4 -5 -2 43 -24 11 3 2 -50 51 41 -22 -23 -43 -3 -11 24 -43 -3 10 9 -45 -4 7 6 15 -19 -20 -28 -29 39 -48 -20 -28 -29 39 -32 -6 46 -4 -5 -2 43 -24 11 10 9 -45 -4 -5 -50 51 41 21 -30 -32 15 13 -36 -38 -13 -14 -6 46 -4 -5 1 0 25 -6 46 -4 7 46 -4 -8 -9 -10 3 -44 -45 -4 7 -47 0 25 33 -39 -0 -1 49 -8 44 43 -24 11 3 -44 8 4 -46 -47 -1 49 -8 44 -3 -11 24 -43 -3 -11 24 -43 -3 10 9 44 2 -50 22 40 0 -26 -30 -32 -16 -0 -18 -22 -52 49 4 45 8 4 -46 -7 4 -46 -47 -18 21 -29 -0 -1 -50 22 21 -29 -0 17 -7 4 -46 6 15 -19 -20 -28 -21 40 -1 -50 22 21"/>
    </vehicle>
    <vehicle id="veh10.0" depart="0.00" departPos="random" departSpeed="max" type="vehicle.bmw.grandtourer">
        <route edges="-14 -6 -7 4 -46 -7 -5 -50 22 -41 -51 22 -41 -51 -23 -43 -44 -9 -10 3 -44 8 7 46 -4 -8 -45 -4 7 -47 -18 21 -30 -32 -16 39 31 -21 40 0 39 31 -21 -41 -51 -23 -43 -3 10 9 8 7 46 -4 7 46 -4 -5 -2 -3 -11 24 42 41 -22 -52 -2 -44 8 7 46 -4 7 -47 -18 -22 51 -42 23 51 -42 23 22 40 0 25 15 13 -36 -38 -13 -14 33 -39 25 15 -19 48 31 -29 25 33 -39 -0 17 -7 -8 44 2 -50 -23 -43 -3 -11 24 42 -51 -23 -43 2 49 4 -46 -47 -1 -50 -23 -24 11 3 2 -50 -23 42 -51 -23 -43 2 49 7 46 45 44 2 -50 22 -41 -51 22 -41 -51 -52 49 7 46 -4 -5 1 -18 -22 -52 -2 43 -24 11 3 2 -50 -23 -43 2 1 -18 21 28 27 -38 -13 -14 -6 -47 -1 -2 -3 -11 24 42 -51 22 -41 -51 22 21 -29 39 -32 15 13 -36 -27 20 48 31 -29 25 33 -39 -26 -30 -48 -20 -28 -30 -39 -0 17 -7 -8 44 43 -24 11 3 -44 8 -5 -50 51 41 -22 -52 -2 43 -24 11 3 43 -24 11 3 -44 8 -5 1 -18 -41 -51 22 40 17 -7 -8 -45 -4 -5 -50 -23 42 -51 -52 49 7 46 -4 -5 -2 -3 -11 24 42 -51 -52 49 4 45 -9 -10 3 43 -24 11 3 -44 -9 -10 -11 24 23 22 21 -29 25 15 -19 48 31 28 27 37 -13 -14 -16 39 -48 19 13 35 37 35 37 -13 -14 33 -39 -26 -30 -48 -20 -28 -30 -39 -0 17 46 -4 7 46 -4 -5 1 -18 -22 51 41 21 -29 25 33 -39 -0 17 46 -4 -5 1 -18 21 28 27 -38 -13 -14 -6 -7 -5 -50 -23 42 41 40 -1 49 7 46 -4 -5 -2 43 -24 11 3 -44 -9 -10 3 43 -24 11 10 9 8 4 -46 -7 -5 1 -18 -22 -52 1 -18 21 -29 25 33 31 -21 40 -1 49 7 -47 -1 -50 22 40 -1 49 -8 -45 -4 -8 -45 -46 6 15 13 35 37 -13 -14 33 31 28 27 -38 -13 -14 33 -39 -0 -1 -2 -3 10 9 44 -3 10 9 8 -5 -50 51 41 -22 51 41 21 -30 -39 -26 -21 40 0 -26 -21 40 -1 -50 -23 -43 -44 -9 -10 3 -44 -9 -10 3 -44 -45 -46 6 -16 -0 17 6 15 13 35 37 -13 -14 -16 39 -32 -6 46 -4 -5 -50 -23 -43 -3 -11 24 42 41 -22 51 41 40 17 -7 -5 1 17 -7 4 45 8 4 45 -9 -10 3 -44 -9 -10 3 -44 -9 -10 3 -44 8 -5 1 17 6 15 -19 48 -39 -26 -21 40 0 25 -6 -7 4 45 8 4 -46 -7 4 45 8 -5 -50 -23 42 41 21 -30 -39 -26 -21 40 -1 -50 51 41 -22 51 41 21 28 27 37 -13 -14 33 31 28 27 37 -13 -14 33 -48 19 13 -36 -38 -13 -14 33 -39 -0 17 -7 4 -46 6 15 -19 48 31 -29 -0 -1 -50 22 21 28 27 37 35 -27 20 19 13 -36 -27 20 48 -39 -26 -21 -41 -42 -24 11 3 2 -50 22 40 0 39 -48 19 13 -36 -38 -36 -38 -36 -27 20 48 31 28 27 -38 -13 -14 -16 -26 -30 -48 19 13 -36 -27 20 19 13 35 -27 -28 -30 -39 25 -6 -47 0 25 15 -19 -20 -28 -21 -22 -52 -2 43 42 -51 22 21 28 27 37 35 37 35 37 -13 -14 33 -48 19 13 35 -27 20 48 31 28 27 -38 -13 -14 33 31 28 27 37 -13 -14 33 -39 -0 17 46 -4 -8 -9 -10 -11 24 23 -52 1 0 25 -6 -47 -1 49 -8 44 2 -50 -23 -24 11 3 43 -24 11 3 -44 8 -5 1 0 -26 -30 -32 15 13 -36 -27 20 48 -39 -26 28 27 -38 -13 -14 -16 39 -32 -6 46 -4 7 -47 -1 -2 -3 10 9 -45 -4 -8 -45 -4 -5 1 -18 21 -29 -0 -18 21 28 27 -38 -36 -27 20 48 -39 -26 -21 40 17 6 33 -39 -26 -21 40 -1 49 -8 -45 -4 7 -47 0 25 15 -19 48 -39 25 33 31 28 27 37 35 37 35 -27 20 48 31 -21 -41 -51 -23 -43 2 -50 51 41 21 -30 -32 -6 46 -4 -8 -9 -10 3 43 -24 11 3 2 49 4 -46 -7 -5 -50 -23 42 -51 22 -41 -42 23 51 41 40 -1 -50 -23 -43 -3 10 9 44 43 23 22 21 28 27 -38 -36 -27 -28 -30 -39 -26 -30 -48 -20 -28 -21 40 0 39 31 -21 -41 -42 -43 2 49 -8 44 -3 10 9 -45 -46 -7 4 45 -9 -10 3 43 23 -52 1 17 6 15 -19 48 31 -21 -22 -23 -24 11 10 9 -45 -4 -8 -45 -4 -8 -45 -4 -5 -2 -44 -9 -10 3 43 -24 11 3 -44 -9 -10 3 43 -24 11 3 43 -24 11 3 43 42 -51 22 -41 -51 -23 -24 11 3 -44 -9 -10 -11 24 23 -52 49 7 -47 0 -26 -30 -39 -26 -30 -39 -26 -30 -32 -6 -7 -5 1 17 -7 4 45 -9 -10 -11 24 23 51 41 21 28 27 -38 -36 -38 -36 -27 -28 -30 -48 19 13 35 -27 -28 -30 -48 -20 -28 -21 -41 -51 22 40 17 -7 -8 44 43 23 -52 -2 -44 8 7 6 -16 -0 -1 -50 -23 42 -51 22 40 17 46 45 8 4 45 8 7 46 45 -9 -10 3 -44 -9 -10 3 -44 -9 -10 3 2 -50 22 40 -1 -2 43 -24 11 3 -44 8 4 45 -9 -10 -11 24 42 41 21 -30 -48 19 13 -36 -27 20 48 31 28 27 -38 -13 -14 -6 -47 0 -26 -30 -39 25 -6 -7 -5 -2 -44 8 7 -47 -18 21 -29 39 -48 19 13 35 37 -13 -14 -6 -47 0 25 -6 -47 0 39 -48 19 13 -36 -38 -13 -14 -16 -0 -18 -22 51 -42 -24 11 3 43 23 22 -41 -51 22 40 0 25 15 -19 -20 -28"/>
    </vehicle>
    <vehicle id="veh100.0" depart="0.00" departPos="random" departSpeed="max" type="vehicle.chevrolet.impala">
        <route edges="-6 -47 0 39 -48 -20 -28 -21 -41 -51 -23 42 -51 -52 1 17 6 -16 -0 -1 -2 43 -24 11 10 9 -45 -4 -5 1 0 25 -6 -47 0 25 -6 -47 0 -26 -21 -22 -52 -2 -3 10 9 -45 -46 -7 -5 -2 43 -24 11 3 -44 -9 -10 3 43 42 -51 22 40 0 39 -48 -20 -28 -21 40 0 25 -6 46 -4 7 6 33 31 28 27 -38 -13 -14 -6 46 -4 -8 -45 -4 7 -47 -1 -50 51 41 -22 -52 -2 43 23 51 41 21 -30 -39 -26 28 27 -38 -13 -14 -16 39 31 -29 -0 -1 -2 -44 -45 -4 7 -47 -1 49 7 -47 -18 -41 -42 23 -52 1 -18 -41 -42 23 -52 1 0 25 33 -39 -0 -18 21 28 27 37 -13 -14 -6 46 -4 -8 -45 -4 7 46 45 8 4 45 8 -5 -2 -3 -11 24 -43 -44 8 -5 -2 -44 -9 -10 -11 24 42 -51 22 40 0 39 31 28 27 -38 -13 -14 -6 -7 4 45 -9 -10 -11 24 42 -51 22 21 -29 -0 17 6 33 -48 19 13 35 -27 20 19 13 -36 -27 20 48 -39 -26 -30 -39 25 -6 -47 -1 -50 -23 42 41 21 -29 39 -48 19 13 -36 -27 -28 -21 -22 -52 -2 -3 -11 24 23 51 41 -22 -52 1 17 -7 -8 44 2 -50 51 -42 23 51 41 -22 51 -42 -24 11 3 -44 8 -5 -2 -44 8 7 46 -4 -5 1 17 46 -4 -8 -45 -46 -47 -1 -50 -23 -43 2 49 7 46 45 44 2 1 -18 21 -30 -32 15 -19 48 31 28 27 -38 -13 -14 -6 46 -4 -5 -50 -23 42 -51 22 21 28 27 37 -13 -14 -6 -47 -18 21 -30 -39 25 15 -19 48 31 28 27 -38 -36 -27 20 19 13 -36 -38 -36 -27 -28 -21 -41 -42 -24 11 10 9 44 2 49 -8 44 2 -50 51 41 -22 51 -42 23 -52 49 4 -46 6 33 -39 25 33 -48 -20 -28 -29 -0 -18 -41 -51 22 -41 -51 -23 -43 2 1 -18 21 -29 39 -48 19 13 35 37 -13 -14 -6 46 45 8 7 46 -4 -5 -2 -3 10 9 44 2 49 -8 -45 -4 -5 1 -18 -22 51 41 40 0 25 -6 46 -4 7 -47 -18 21 28 27 37 35 -27 20 48 31 28 27 -38 -13 -14 -6 -7 4 45 -9 -10 -11 24 -43 -3 10 9 -45 -46 6 33 -48 19 13 35 -27 -28 -21 40 0 -26 -21 -41 -51 -52 49 -8 -9 -10 3 -44 8 4 45 8 4 45 8 7 46 -4 7 6 -16 -26 -30 -48 19 13 35 37 -13 -14 33 31 -21 40 17 46 -4 7 46 45 8 7 6 -16 -0 -18 -41 -51 -52 -2 -44 8 4 45 8 7 46 -4 -8 -45 -46 6 15 -19 48 31 28 27 -38 -13 -14 -6 -7 4 45 -9 -10 3 43 -24 11 10 9 -45 -4 -8 -45 -46 -47 0 39 -48 19 13 -36 -38 -13 -14 -16 -0 -18 -22 -23 -43 2 -50 -23 -24 11 10 9 44 -3 -11 24 42 -51 -52 1 0 -26 -21 -41 -51 22 -41 -51 -23 42 41 21 -30 -48 19 13 -36 -27 20 48 -39 -26 28 27 -38 -13 -14 -16 -0 17 6 33 31 28 27 -38 -36 -27 20 19 13 -36 -27 -28 -21 -22 -23 -24 11 3 2 1 -18 -22 51 -42 -43 -44 8 -5 -2 -44 -9 -10 3 43 42 -51 22 21 -29 39 -32 15 -19 48 31 -29 39 -32 15 -19 48 -32 -16 -0 -18 -22 51 41 21 28 27 37 -13 -14 -6 -47 -18 21 -29 -0 -18 21 -29 39 31 28 27 -38 -13 -14 -16 -0 -18 -22 -52 49 7 46 -4 -8 -45 -4 7 46 -4 7 46 -4 -5 1 17 6 -16 -0 -1 -50 22 40 0 39 -48 -20 -28 -21 -41 -51 -23 -43 -44 8 7 6 15 -19 -20 -28 -21 40 -1 -50 -23 -24 11 10 9 8 -5 -2 43 -24 11 3 -44 8 7 6 -16 39 -32 -6 -47 -18 -22 51 41 -22 -52 -2 -44 -9 -10 -11 24 -43 -3 10 9 8 4 -46 6 33 -39 -26 -21 -41 -42 -24 11 10 9 44 2 1 -18 21 28 27 37 35 -27 20 48 -39 -26 28 27 -38 -13 -14 -6 46 -4 7 46 45 -9 -10 3 43 23 22 40 -1 49 7 46 45 44 2 49 7 46 -4 -8 -9 -10 -11 24 23 -52 1 -18 -22 51 41 40 -1 -2 43 23 51 -42 -43 2 1 -18 21 -29 39 -32 -6 46 -4 -8 44 -3 -11 24 42 -51 22 -41 -42 -24 11 3 2 49 -8 44 43 23 -52 -2 43 -24 11 10 9 44 43 42 41 -22 51 41 -22 -52 -2 -3 10 9 -45 -4 7 46 -4 7 6 -16 39 -48 19 13 -36 -27 20 48 31 -21 40 0 39 -32 -6 -7 -8 44 43 23 22 -41 -51 -52 1 17 6 33 -39 -26 28 27 -38 -13 -14 33 -39 -26 28 27 -38 -13 -14 33 -39 -26 -21 -41 -51 -23 42 -51 -52 -2 -3 10 9 44 2 -50 -23 -24 11 10 9 -45 -46 -47 -1 49 -8 44 -3 10 9 -45 -46 -7 -8 44 2 49 7 -47 0 39 31 -21 -22 51 -42 -24 11 3 -44 8 -5 -2 -44 8 4 45 8 -5 1 -18 21 -29 -0 17 46 -4 7 -47 -1 -50 22 40 -1 49 -8 44 43 23 51 41 -22 51 41 40 0 25 -6 -7 -5 1 17 46 -4 -5 1 0 39 -32 15 13 -36 -27 20 48 -32 -16 39 -48 19 13 -36 -38 -13 -14 -6 46 -4 7 -47 -1 -2 -44 8 -5 -50 -23 -43 -3 -11 24 23 -52 1 17 -7 -5 1 17 6 -16 -26 -21 40 0 -26 28 27 37 35 -27 -28 -30 -39 25 15 13 35 -27 -28 -30 -39 -26 -21 -22 51 -42 -24 11 10 9 -45 -46 -7 -5 -50 22 21 -30 -32 -16 -26 -30 -48 -20 -28 -21 -22 -23 42 41 -22 -23 42 -51 22 21 28 27 -38 -36"/>
    </vehicle>
    <vehicle id="veh101.0" depart="0.00" departPos="random" departSpeed="max" type="vehicle.citroen.c3">
        <route edges="-23 42 41 -22 51 41 -22 -52 1 0 25 15 13 35 -27 -28 -21 -41 -51 22 -41 -51 -52 49 -8 -45 -46 -47 -18 -22 51 -42 -24 11 3 2 1 -18 -41 -42 -24 11 3 2 49 7 6 33 -39 25 33 -48 19 13 -36 -27 20 48 -39 -26 -21 -41 -51 -52 -2 -44 -9 -10 3 -44 -9 -10 3 43 23 -52 1 -18 21 -30 -48 19 13 35 37 -13 -14 -6 46 45 8 7 46 -4 -5 -2 -3 10 9 8 4 -46 6 15 -19 48 31 -21 -41 -51 -52 1 -18 -22 51 -42 -24 11 3 43 42 -51 22 21 -30 -39 25 33 -48 -20 -28 -30 -39 -26 -30 -39 25 -6 46 -4 -5 1 -18 21 28 27 -38 -13 -14 -6 -7 -5 -50 -23 42 41 21 -29 25 -6 46 45 8 4 -46 -7 -8 -45 -4 -8 44 -3 -11 24 -43 -3 -11 24 42 -51 22 -41 -51 -52 -2 -44 -45 -4 7 6 15 -19 48 -39 -26 -30 -39 -26 -21 40 -1 49 -8 -45 -4 -8 -9 -10 3 -44 -45 -46 -47 -1 49 -8 44 2 -50 -23 -24 11 3 -44 8 4 45 -9 -10 3 -44 8 7 -47 -1 49 -8 -45 -4 -8 -45 -4 -8 -45 -4 -5 1 0 39 -32 -16 -0 -18 21 -30 -39 -0 -18 -22 -23 -43 -3 -11 24 -43 -3 -11 24 23 51 41 -22 -52 -2 -44 -45 -4 -8 44 2 1 17 -7 4 45 8 7 -47 0 39 31 -21 40 17 46 -4 -8 -45 -4 7 6 33 -48 19 13 -36 -27 20 19 13 35 -27 20 48 31 -29 25 -6 46 -4 7 46 45 8 -5 -50 22 -41 -51 22 -41 -51 -23 42 -51 -52 1 0 39 -48 19 13 35 -27 -28 -30 -48 19 13 -36 -27 20 48 -32 -16 39 31 -21 -41 -51 22 -41 -51 22 21 28 27 37 -13 -14 -6 46 -4 -5 1 0 -26 -30 -48 19 13 35 37 -13 -14 -6 -47 -1 49 -8 -9 -10 3 -44 -45 -4 -8 -45 -46 -7 4 45 44 -3 10 9 8 4 45 -9 -10 3 43 42 -51 22 -41 -42 23 22 40 -1 -2 -3 -11 24 42 41 21 -30 -39 -26 -30 -39 -26 -21 40 -1 49 -8 -45 -4 -8 -9 -10 3 43 42 -51 -23 -43 -3 10 9 -45 -46 6 -16 -0 -1 49 7 -47 0 -26 28 27 37 -13 -14 -6 -7 -5 -2 43 23 22 40 0 -26 -30 -39 -0 -18 -22 -52 -2 43 23 22 -41 -42 -24 11 10 9 44 2 -50 51 41 21 28 27 37 -13 -14 33 31 -21 -41 -42 23 22 40 -1 -2 -44 -9 -10 -11 24 42 41 40 -1 -2 -44 -45 -4 -8 -45 -46 -47 -1 -50 22 -41 -42 23 51 41 40 -1 -2 -3 -11 24 42 -51 -23 -43 2 49 7 6 33 31 -21 -41 -42 -24 11 3 2 49 4 -46 -47 0 25 33 31 -21 -41 -51 22 21 -30 -48 19 13 -36 -38 -13 -14 -6 -7 4 45 -9 -10 -11 24 -43 2 49 4 45 8 -5 -2 43 42 -51 -23 -43 -44 8 -5 1 -18 -22 -52 -2 -44 -45 -46 -7 -5 -2 43 23 51 41 40 17 -7 -5 -50 51 41 21 -30 -32 -6 -47 -18 -22 -52 49 -8 -45 -4 -8 -45 -4 7 -47 -1 49 -8 -9 -10 -11 24 23 -52 49 -8 44 43 42 -51 22 21 28 27 -38 -13 -14 33 -48 19 13 35 37 35 -27 20 19 13 35 -27 20 48 -39 -0 -18 -22 -52 1 0 -26 28 27 37 -13 -14 33 -39 -0 -1 49 4 45 44 -3 -11 24 42 -51 22 21 -30 -39 -0 17 -7 4 45 -9 -10 -11 24 -43 -3 10 9 -45 -4 -8 -45 -4 -8 44 -3 10 9 44 -3 10 9 8 4 -46 -47 -18 -22 -52 1 17 6 15 13 -36 -27 20 19 13 -36 -27 20 48 -39 25 15 -19 48 -39 -26 -30 -39 25 -6 46 45 -9 -10 3 -44 -9 -10 3 43 23 51 41 21 -30 -39 -26 -21 -41 -42 23 -52 49 7 46 -4 7 -47 0 39 -48 19 13 -36 -27 20 48 -32 -6 46 45 8 4 -46 6 15 -19 48 31 -21 40 0 39 31 28 27 -38 -13 -14 -16 -0 -18 -22 -23 -43 2 -50 22 21 -29 -0 17 -7 -8 -45 -46 -7 -8 44 43 42 -51 -23 42 -51 22 -41 -51 -23 -43 2 -50 22 40 0 39 -32 -6 46 -4 7 6 33 -39 25 15 13 -36 -38 -13 -14 -6 -47 0 25 15 -19 -20 -28 -21 40 -1 -2 -3 -11 24 42 -51 -23 -24 11 3 2 49 7 46 45 -9 -10 3 -44 -9 -10 -11 24 23 22 -41 -42 -24 11 10 9 44 43 -24 11 3 -44 8 -5 -2 -44 -9 -10 3 -44 -45 -4 -8 44 43 23 51 41 21 28 27 -38 -36 -27 -28 -29 -0 -18 -22 -52 1 0 25 -6 -7 4 45 -9 -10 -11 24 -43 -3 -11 24 -43 -3 -11 24 -43 -44 -9 -10 3 -44 8 4 45 -9 -10 3 -44 8 4 45 -9 -10 -11 24 -43 -44 8 -5 -2 -3 -11 24 23 -52 -2 -44 8 -5 -2 43 23 51 41 40 17 -7 4 45 -9 -10 3 43 23 -52 49 -8 44 -3 10 9 44 43 -24 11 3 2 49 4 -46 -7 -5 -2 -44 -9 -10 3 -44 8 -5 1 -18 21 -30 -48 19 13 -36 -38 -13 -14 33 -48 -20 -28 -29 -0 17 46 45 8 4 45 44 -3 10 9 -45 -46 -7 -5 1 -18 -22 -52 49 -8 -9 -10 3 -44 -45 -4 7 -47 -1 49 7 46 -4 7 -47 -1 49 -8 44 -3 -11 24 42 -51 22 40 -1 -50 22 40 0 39 -48 -20 -28 -30 -32 -6 46 45 -9 -10 3 -44 8 7 46 -4 7 -47 -1 -50 22 -41 -51 22 21 -29 -0 17 -7 4 45 -9 -10 -11 24 -43 -3 -11 24 -43 -3 10 9 44 2 1 17 -7 -5 1 -18 -22 -52 -2 43 23 51 41 40"/>
    </vehicle>
    <vehicle id="veh102.0" depart="0.00" departPos="random" departSpeed="max" type="vehicle.jeep.wrangler_rubicon">
        <route edges="-29 -0 17 6 15 -19 48 -39 -0 -18 -41 -51 22 -41 -51 -52 1 -18 -41 -51 -52 -2 -3 -11 24 -43 2 1 0 39 -48 19 13 35 37 35 37 -13 -14 -6 -47 -18 -22 -52 -2 43 -24 11 3 -44 -9 -10 -11 24 42 -51 22 21 -29 25 15 -19 -20 -28 -29 25 33 -48 -20 -28 -30 -32 -6 46 -4 7 46 -4 -5 1 -18 -22 -52 -2 -44 -9 -10 3 43 42 -51 22 40 -1 -50 51 41 21 -30 -39 -26 28 27 -38 -13 -14 -6 -7 -8 -9 -10 -11 24 42 -51 -23 -24 11 3 -44 -9 -10 3 -44 -45 -46 6 -16 -26 -21 -22 51 41 -22 -52 1 -18 -41 -51 22 -41 -51 22 40 -1 -2 -3 10 9 8 -5 1 17 46 -4 -8 -9 -10 -11 24 -43 2 -50 -23 42 41 21 -30 -48 19 13 35 37 -13 -14 33 -48 -20 -28 -21 40 -1 49 4 -46 -47 -18 -22 -23 -24 11 3 43 23 -52 1 0 25 15 -19 48 -39 25 -6 -47 -1 -50 51 -42 -43 -3 -11 24 -43 2 1 0 25 -6 -47 -1 -50 51 41 21 -29 -0 17 6 -16 -0 -18 -22 51 41 -22 -52 49 4 -46 6 15 13 35 37 -13 -14 -16 39 -48 -20 -28 -30 -39 -0 -1 -50 -23 -43 -44 -9 -10 -11 24 23 51 -42 23 51 41 21 -29 -0 17 6 -16 39 -48 19 13 -36 -38 -36 -27 20 48 -39 -0 17 6 33 -39 -0 -18 21 -30 -39 25 15 -19 48 31 28 27 -38 -13 -14 33 -39 -0 -18 -22 51 41 21 -30 -48 19 13 -36 -27 20 48 -39 -0 17 6 -16 -0 17 46 -4 -8 -45 -4 -5 1 -18 21 -29 -0 -18 21 -29 -0 -18 21 -29 39 31 28 27 37 -13 -14 33 -39 -26 28 27 37 -13 -14 33 -39 -0 17 -7 4 45 8 4 45 44 43 -24 11 3 2 49 7 -47 -18 21 -29 25 15 13 -36 -27 20 48 31 -29 -0 -1 -2 -44 -45 -46 -47 0 25 15 13 35 -27 -28 -21 -41 -51 22 21 -30 -48 19 13 -36 -38 -13 -14 33 -48 19 13 -36 -27 20 48 31 -21 40 -1 -50 -23 42 -51 -23 -43 -3 -11 24 -43 -3 -11 24 23 51 -42 -24 11 3 43 42 -51 -23 -43 2 -50 51 41 -22 -52 -2 43 23 -52 -2 -3 -11 24 23 22 -41 -42 23 -52 1 -18 21 -30 -48 19 13 -36 -27 20 19 13 -36 -38 -13 -14 -6 46 -4 -5 -2 -44 8 -5 -2 -3 -11 24 23 22 21 -30 -48 19 13 -36 -27 20 48 31 -21 -22 51 41 21 28 27 37 -13 -14 -16 -0 -18 21 28 27 -38 -13 -14 -6 -47 0 25 15 13 -36 -38 -13 -14 -16 -0 17 -7 -5 -2 -44 -45 -4 -8 -9 -10 3 2 1 -18 21 28 27 -38 -36 -27 -28 -21 -41 -42 -43 -3 -11 24 -43 -3 10 9 -45 -46 -47 0 39 -32 15 -19 48 31 -21 -41 -51 22 40 0 39 -48 -20 -28 -21 -41 -51 -52 -2 -3 -11 24 -43 -44 8 4 45 -9 -10 3 2 -50 -23 -43 -3 -11 24 42 -51 22 40 0 -26 28 27 -38 -36 -27 -28 -30 -48 19 13 -36 -27 -28 -21 40 17 -7 -8 44 2 -50 -23 -43 -3 -11 24 -43 2 1 -18 -41 -51 -23 -43 -3 -11 24 42 41 -22 51 41 21 -29 25 15 -19 48 -32 -16 39 -48 -20 -28 -30 -48 -20 -28 -21 -41 -51 -23 -43 -44 -9 -10 3 2 1 17 6 33 -39 -26 -30 -32 -6 -7 -5 -50 22 -41 -42 -24 11 3 2 -50 22 -41 -42 -43 -3 -11 24 -43 -44 8 4 -46 -47 0 39 -48 -20 -28 -21 -41 -51 -23 42 -51 22 40 0 25 -6 46 -4 -8 -45 -4 -5 -50 22 -41 -51 -23 -24 11 3 -44 8 4 45 -9 -10 3 43 42 -51 -52 1 17 6 15 13 -36 -27 20 48 -39 -0 -1 -50 51 -42 -24 11 3 2 -50 -23 42 -51 -23 -43 -3 -11 24 42 41 40 0 39 -32 -6 -47 -1 -50 -23 -24 11 10 9 8 4 -46 6 33 31 28 27 -38 -36 -27 20 19 13 -36 -38 -36 -27 20 48 -32 -16 39 -32 -6 46 45 44 2 1 -18 -22 51 -42 -24 11 3 43 23 -52 1 -18 21 -30 -39 25 33 31 -29 -0 -1 -50 22 40 0 25 33 -48 19 13 -36 -38 -13 -14 -16 -0 17 6 33 -39 25 -6 -7 -5 -2 -44 -9 -10 3 -44 -9 -10 3 -44 -9 -10 -11 24 23 -52 1 0 -26 -21 40 17 6 15 13 -36 -27 -28 -21 40 -1 49 -8 -9 -10 -11 24 42 41 21 -29 39 -48 19 13 -36 -27 20 19 13 -36 -27 20 48 -32 -16 -0 17 -7 -5 -2 -3 10 9 8 -5 1 17 -7 4 45 8 -5 1 17 6 33 -48 -20 -28 -29 -0 -1 49 4 45 8 4 45 44 -3 10 9 44 -3 10 9 8 4 45 8 -5 -2 -3 10 9 44 2 -50 51 -42 -24 11 10 9 8 4 45 -9 -10 -11 24 42 -51 -52 -2 -44 -9 -10 3 -44 8 4 45 -9 -10 -11 24 42 41 -22 -23 -43 2 -50 -23 -43 2 49 4 -46 6 33 -39 25 15 13 -36 -38 -36 -38 -13 -14 -6 -7 4 45 8 4 45 -9 -10 3 -44 -45 -4 7 -47 -1 -50 -23 42 -51 -23 -43 -3 10 9 44 -3 -11 24 -43 2 1 -18 -22 -52 49 7 -47 -18 -22 -23 42 -51 -23 -24 11 10 9 8 -5 -2 -44 -9 -10 3 2 49 -8 -45 -4 -5 -2 -44 8 4 45 8 4 45 8 -5 -2 -44 8 -5 1 -18 -22 51 41 -22 51 -42 -43 -3 -11 24 -43 -44 8 4 -46 6 -16 39 31 -21 -22 -23 42 41 -22 51 41 40 -1 49 -8 44 43 42 41 -22 -23 42 41 40 17 -7 4 -46 -7 -5 -2 43 -24 11 10 9 44 2 49 4"/>
    </vehicle>
    <vehicle id="veh103.0" depart="0.00" departPos="random" departSpeed="max" type="vehicle.lincoln.mkz_2017">
        <route edges="-10 3 2 -50 -23 42 -51 -23 42 41 40 17 46 -4 -5 -2 -44 -45 -4 -5 -2 43 23 51 41 21 28 27 37 35 37 -13 -14 33 -39 -26 -30 -48 19 13 -36 -38 -13 -14 -6 46 45 8 4 -46 6 33 -48 19 13 35 -27 20 48 31 28 27 37 -13 -14 -16 39 -32 -6 -47 -1 -2 43 -24 11 10 9 -45 -4 -5 1 -18 21 -29 -0 -1 -50 22 21 -29 25 33 -48 -20 -28 -21 -41 -42 23 51 41 -22 51 -42 -43 2 49 7 46 -4 -5 -50 22 21 28 27 -38 -36 -27 20 48 -39 -0 17 -7 4 45 8 7 -47 -1 49 7 -47 -18 -41 -51 -23 -43 2 49 7 6 33 -48 -20 -28 -29 -0 -18 -22 51 41 -22 51 -42 -24 11 3 43 42 -51 -23 42 41 21 -29 39 -32 15 13 35 37 -13 -14 33 -48 19 13 35 -27 20 19 13 -36 -38 -13 -14 33 -39 -26 -21 -41 -51 -52 1 17 -7 -5 1 -18 -41 -51 -52 1 17 -7 -5 -50 -23 42 -51 22 -41 -51 -23 42 -51 -23 -24 11 3 -44 8 7 46 -4 7 -47 0 25 -6 -7 4 45 44 -3 10 9 -45 -4 7 46 -4 7 46 45 8 4 -46 6 15 13 -36 -27 20 48 -39 -26 -21 -22 51 -42 23 51 -42 23 51 41 40 17 6 15 -19 48 -32 -6 46 -4 7 6 15 13 -36 -38 -13 -14 33 -48 -20 -28 -21 -41 -51 -52 49 4 -46 -47 -1 49 -8 -45 -4 7 -47 0 25 -6 -47 -1 -2 43 23 51 -42 -24 11 10 9 -45 -46 -7 -5 -2 -44 -45 -4 7 6 15 -19 -20 -28 -30 -39 25 33 -48 19 13 -36 -38 -13 -14 33 -39 -0 -1 -2 43 -24 11 3 -44 -9 -10 -11 24 42 -51 22 -41 -51 22 40 17 6 33 -39 -0 17 6 -16 -26 -21 -41 -51 -52 1 17 -7 4 45 -9 -10 -11 24 -43 -3 -11 24 42 -51 -52 49 -8 -45 -4 7 6 15 13 35 37 35 37 35 37 -13 -14 33 -39 -26 -30 -32 15 13 -36 -38 -36 -38 -36 -27 20 19 13 35 -27 -28 -29 -0 -18 21 -30 -32 15 -19 48 -39 25 -6 -7 4 45 8 4 45 8 -5 -50 22 -41 -42 -24 11 10 9 -45 -4 7 46 45 8 -5 1 0 25 -6 46 45 44 2 -50 51 41 -22 -52 1 -18 -22 -23 42 41 40 17 -7 -5 1 17 -7 -8 -9 -10 -11 24 23 -52 1 17 6 15 13 35 -27 -28 -30 -39 -0 17 46 45 8 7 46 -4 7 6 15 13 -36 -27 -28 -29 39 -48 19 13 -36 -27 -28 -29 39 -32 -6 -7 -5 -2 -3 10 9 44 43 42 41 40 -1 -50 -23 42 41 21 28 27 -38 -36 -27 -28 -29 -0 17 -7 -8 44 -3 10 9 -45 -46 6 15 -19 -20 -28 -30 -32 15 -19 48 -32 15 -19 48 -39 -26 -30 -48 19 13 -36 -27 20 19 13 -36 -27 20 19 13 35 37 35 37 35 37 35 37 -13 -14 33 -48 -20 -28 -30 -48 19 13 35 37 35 37 -13 -14 -16 -0 -1 -50 51 -42 -24 11 3 43 42 41 -22 51 41 -22 -52 1 -18 21 -29 25 15 -19 48 -32 -16 -0 -18 21 -30 -48 19 13 -36 -27 20 48 -39 25 15 -19 48 -39 -0 -18 -22 51 41 40 -1 -50 51 41 40 0 39 -48 19 13 -36 -38 -13 -14 33 -39 -26 -30 -32 -6 -47 -1 -2 -3 -11 24 -43 -44 -9 -10 -11 24 23 22 -41 -51 -23 -43 -3 -11 24 -43 -3 10 9 44 -3 10 9 44 2 -50 -23 42 -51 22 40 -1 -50 51 41 21 -30 -48 19 13 -36 -27 20 19 13 -36 -38 -36 -27 20 19 13 35 37 35 -27 -28 -29 39 -48 19 13 35 -27 -28 -29 -0 -18 -41 -42 -43 -3 -11 24 23 51 41 21 -30 -39 25 -6 -47 0 -26 -21 -22 51 41 21 -29 39 -48 -20 -28 -29 25 -6 -47 -1 49 -8 44 2 49 -8 -9 -10 3 2 -50 22 -41 -51 22 21 -29 -0 -1 -50 22 -41 -51 22 21 -29 39 -48 -20 -28 -30 -39 -0 -18 21 -30 -32 15 13 -36 -27 20 48 -39 -26 -21 -41 -42 -24 11 3 2 49 7 -47 -1 49 4 45 -9 -10 -11 24 42 41 -22 -23 -43 -3 -11 24 42 -51 22 -41 -51 -52 49 7 46 -4 -5 -50 -23 42 41 40 17 -7 -8 44 -3 -11 24 42 -51 -52 49 7 6 -16 -26 -30 -39 -26 -21 40 -1 49 -8 44 -3 10 9 44 43 -24 11 3 -44 -45 -4 7 -47 0 25 -6 46 -4 -8 44 -3 10 9 44 2 1 -18 -22 51 41 21 -29 39 -48 19 13 35 37 35 37 -13 -14 -6 46 -4 -5 1 17 -7 -8 44 2 -50 22 40 0 25 15 -19 48 -39 -26 -21 40 17 6 33 31 -21 -22 -23 42 41 40 -1 49 -8 -45 -4 -8 -45 -46 -7 -8 44 2 -50 51 41 21 28 27 -38 -36 -27 20 48 -32 15 13 35 37 -13 -14 -6 -47 0 39 -32 -6 46 -4 -5 -2 -44 -9 -10 -11 24 42 41 -22 -23 -24 11 3 2 49 4 45 -9 -10 3 43 23 22 40 0 -26 -21 40 -1 -50 22 21 -30 -48 19 13 35 37 35 -27 20 48 -32 -6 -47 0 39 -48 19 13 -36 -38 -36 -38 -13 -14 -6 -7 4 45 -9 -10 -11 24 42 -51 22 40 -1 49 7 46 -4 -8 44 -3 -11 24 23 -52 -2 43 42 41 -22 -52 49 4 45 44 43 42 -51 22 -41 -51 22 21 -29 -0 17 -7 -8 -9 -10 3 2 49 7 6 15 -19 48 31 -21 -41 -51 -52 -2 43 -24 11 3 43 -24 11 10 9 8 -5 1 0 39 -48 19 13 35 37 -13 -14 -6 -47 -1 49 4 -46 -7 4 45 -9 -10 3 -44 8 -5 1 -18 -22 -52 1 17"/>
    </vehicle>
    <vehicle id="veh104.0" depart="0.00" departPos="random" departSpeed="max" type="vehicle.lincoln.mkz_2020">