<?xml version='1.0' encoding='UTF-8'?>
<!-- generated on 2023-11-13 19:55:11.202536 by randomTrips.py v1_18_0+0000-03ecfdea036
<configuration>
    <net-file value="D:\Scripts\SUMO\generate_routes\net\Town05.net.xml"/>
    <output-trip-file value="D:\Scripts\SUMO\generate_routes\rou\Town05_ped.trips.xml"/>
    <pedestrians value="True"/>
    <persontrip.walk-opposite-factor value="0.8"/>
    <prefix value="ped"/>
    <seed value="43"/>
    <min-distance value="300.0"/>
    <max-distance value="700.0"/>
    <validate value="True"/>
    <end value="10.0"/>
    <period value="0.1"/>
</configuration>
-->
<!-- generated on 2023-11-13 19:55:11 by Eclipse SUMO duarouter Version 1.18.0
<configuration xmlns:xsi="http://www.w3.org/2001/XMLSchema-instance" xsi:noNamespaceSchemaLocation="http://sumo.dlr.de/xsd/duarouterConfiguration.xsd">

    <input>
        <net-file value="D:\Scripts\SUMO\generate_routes\net\Town05.net.xml"/>
        <route-files value="D:\Scripts\SUMO\generate_routes\rou\Town05_ped.trips.xml"/>
    </input>

    <output>
        <output-file value="D:\Scripts\SUMO\generate_routes\rou\Town05_ped.trips.xml.tmp"/>
        <alternatives-output value="NUL"/>
        <write-trips value="true"/>
    </output>

    <processing>
        <persontrip.walk-opposite-factor value="0.8"/>
    </processing>

    <time>
        <begin value="0.0"/>
        <end value="10.0"/>
    </time>

    <report>
        <no-warnings value="true"/>
        <ignore-errors value="true"/>
        <no-step-log value="true"/>
    </report>

</configuration>
-->
<routes xmlns:xsi="http://www.w3.org/2001/XMLSchema-instance" xsi:noNamespaceSchemaLocation="http://sumo.dlr.de/xsd/routes_file.xsd">
    <person id="ped0" depart="0.00" type="walker.pedestrian.0001">
        <personTrip from="-13" to="51" walkFactor="0.75"/>
    </person>
    <person id="ped1" depart="0.10" type="walker.pedestrian.0002">
        <personTrip from="-19" to="42" walkFactor="0.75"/>
    </person>
    <person id="ped2" depart="0.20" type="walker.pedestrian.0007">
        <personTrip from="33" to="-11" walkFactor="0.75"/>
    </person>
    <person id="ped3" depart="0.30" type="walker.pedestrian.0010">
        <personTrip from="28" to="9" walkFactor="0.75"/>
    </person>
    <person id="ped4" depart="0.40" type="walker.pedestrian.0015">
        <personTrip from="11" to="-30" walkFactor="0.75"/>
    </person>
    <person id="ped5" depart="0.50" type="walker.pedestrian.0021">
        <personTrip from="-13" to="-10" walkFactor="0.75"/>
    </person>
    <person id="ped6" depart="0.60" type="walker.pedestrian.0029">
        <personTrip from="11" to="-30" walkFactor="0.75"/>
    </person>
    <person id="ped7" depart="0.70" type="walker.pedestrian.0030">
        <personTrip from="-32" to="24" walkFactor="0.75"/>
    </person>
    <person id="ped8" depart="0.80" type="walker.pedestrian.0036">
        <personTrip from="-14" to="24" walkFactor="0.75"/>
    </person>
    <person id="ped9" depart="0.90" type="walker.pedestrian.0040">
        <personTrip from="48" to="3" walkFactor="0.75"/>
    </person>
    <person id="ped10" depart="1.00" type="walker.pedestrian.0001">
        <personTrip from="3" to="-30" walkFactor="0.75"/>
    </person>
    <person id="ped11" depart="1.10" type="walker.pedestrian.0002">
        <personTrip from="-27" to="24" walkFactor="0.75"/>
    </person>
    <person id="ped12" depart="1.20" type="walker.pedestrian.0007">
        <personTrip from="-24" to="19" walkFactor="0.75"/>
    </person>
    <person id="ped13" depart="1.30" type="walker.pedestrian.0010">
        <personTrip from="33" to="-11" walkFactor="0.75"/>
    </person>
    <person id="ped14" depart="1.40" type="walker.pedestrian.0015">
        <personTrip from="-51" to="13" walkFactor="0.75"/>
    </person>
    <person id="ped15" depart="1.50" type="walker.pedestrian.0021">
        <personTrip from="-27" to="-5" walkFactor="0.75"/>
    </person>
    <person id="ped16" depart="1.60" type="walker.pedestrian.0029">
        <personTrip from="11" to="31" walkFactor="0.75"/>
    </person>
    <person id="ped17" depart="1.70" type="walker.pedestrian.0030">
        <personTrip from="19" to="-3" walkFactor="0.75"/>
    </person>
    <person id="ped18" depart="1.80" type="walker.pedestrian.0036">
        <personTrip from="20" to="10" walkFactor="0.75"/>
    </person>
    <person id="ped19" depart="1.90" type="walker.pedestrian.0040">
        <personTrip from="-36" to="37" walkFactor="0.75"/>
    </person>
    <person id="ped20" depart="2.00" type="walker.pedestrian.0001">
        <personTrip from="19" to="-4" walkFactor="0.75"/>
    </person>
    <person id="ped21" depart="2.10" type="walker.pedestrian.0002">
        <personTrip from="48" to="11" walkFactor="0.75"/>
    </person>
    <person id="ped22" depart="2.20" type="walker.pedestrian.0007">
        <personTrip from="-20" to="9" walkFactor="0.75"/>
    </person>
    <person id="ped23" depart="2.30" type="walker.pedestrian.0010">
        <personTrip from="-10" to="39" walkFactor="0.75"/>
    </person>
    <person id="ped24" depart="2.40" type="walker.pedestrian.0015">
        <personTrip from="24" to="-20" walkFactor="0.75"/>
    </person>
    <person id="ped25" depart="2.50" type="walker.pedestrian.0021">
        <personTrip from="13" to="3" walkFactor="0.75"/>
    </person>
    <person id="ped26" depart="2.60" type="walker.pedestrian.0029">
        <personTrip from="-46" to="19" walkFactor="0.75"/>
    </person>
    <person id="ped27" depart="2.70" type="walker.pedestrian.0030">
        <personTrip from="9" to="13" walkFactor="0.75"/>
    </person>
    <person id="ped28" depart="2.80" type="walker.pedestrian.0036">
        <personTrip from="48" to="-9" walkFactor="0.75"/>
    </person>
    <person id="ped29" depart="2.90" type="walker.pedestrian.0040">
        <personTrip from="-4" to="19" walkFactor="0.75"/>
    </person>
    <person id="ped30" depart="3.00" type="walker.pedestrian.0001">
        <personTrip from="13" to="-11" walkFactor="0.75"/>
    </person>
    <person id="ped31" depart="3.10" type="walker.pedestrian.0002">
        <personTrip from="11" to="48" walkFactor="0.75"/>
    </person>
    <person id="ped32" depart="3.20" type="walker.pedestrian.0007">
        <personTrip from="-13" to="-52" walkFactor="0.75"/>
    </person>
    <person id="ped33" depart="3.30" type="walker.pedestrian.0010">
        <personTrip from="23" to="31" walkFactor="0.75"/>
    </person>
    <person id="ped34" depart="3.40" type="walker.pedestrian.0015">
        <personTrip from="-48" to="10" walkFactor="0.75"/>
    </person>
    <person id="ped35" depart="3.50" type="walker.pedestrian.0021">
        <personTrip from="28" to="-10" walkFactor="0.75"/>
    </person>
    <person id="ped36" depart="3.60" type="walker.pedestrian.0029">
        <personTrip from="-28" to="44" walkFactor="0.75"/>
    </person>
    <person id="ped37" depart="3.70" type="walker.pedestrian.0030">
        <personTrip from="-43" to="-20" walkFactor="0.75"/>
    </person>
    <person id="ped38" depart="3.80" type="walker.pedestrian.0036">
        <personTrip from="48" to="23" walkFactor="0.75"/>
    </person>
    <person id="ped39" depart="3.90" type="walker.pedestrian.0040">
        <personTrip from="-27" to="-10" walkFactor="0.75"/>
    </person>
    <person id="ped40" depart="4.00" type="walker.pedestrian.0001">
        <personTrip from="39" to="9" walkFactor="0.75"/>
    </person>
    <person id="ped41" depart="4.10" type="walker.pedestrian.0002">
        <personTrip from="-27" to="-46" walkFactor="0.75"/>
    </person>
    <person id="ped42" depart="4.20" type="walker.pedestrian.0007">
        <personTrip from="-11" to="-32" walkFactor="0.75"/>
    </person>
    <person id="ped43" depart="4.30" type="walker.pedestrian.0010">
        <personTrip from="42" to="-39" walkFactor="0.75"/>
    </person>
    <person id="ped44" depart="4.40" type="walker.pedestrian.0015">
        <personTrip from="8" to="48" walkFactor="0.75"/>
    </person>
    <person id="ped45" depart="4.50" type="walker.pedestrian.0021">
        <personTrip from="28" to="3" walkFactor="0.75"/>
    </person>
    <person id="ped46" depart="4.60" type="walker.pedestrian.0029">
        <personTrip from="-38" to="-8" walkFactor="0.75"/>
    </person>
    <person id="ped47" depart="4.70" type="walker.pedestrian.0030">
        <personTrip from="-38" to="8" walkFactor="0.75"/>
    </person>
    <person id="ped48" depart="4.80" type="walker.pedestrian.0036">
        <personTrip from="-27" to="-8" walkFactor="0.75"/>
    </person>
    <person id="ped49" depart="4.90" type="walker.pedestrian.0040">
        <personTrip from="-14" to="-10" walkFactor="0.75"/>
    </person>
    <person id="ped50" depart="5.00" type="walker.pedestrian.0001">
        <personTrip from="23" to="31" walkFactor="0.75"/>
    </person>
    <person id="ped51" depart="5.10" type="walker.pedestrian.0002">
        <personTrip from="19" to="23" walkFactor="0.75"/>
    </person>
    <person id="ped52" depart="5.20" type="walker.pedestrian.0007">
        <personTrip from="11" to="39" walkFactor="0.75"/>
    </person>
    <person id="ped53" depart="5.30" type="walker.pedestrian.0010">
        <personTrip from="-16" to="-11" walkFactor="0.75"/>
    </person>
    <person id="ped54" depart="5.40" type="walker.pedestrian.0015">
        <personTrip from="43" to="19" walkFactor="0.75"/>
    </person>
    <person id="ped55" depart="5.50" type="walker.pedestrian.0021">
        <personTrip from="8" to="-28" walkFactor="0.75"/>
    </person>
    <person id="ped56" depart="5.60" type="walker.pedestrian.0029">
        <personTrip from="-38" to="-19" walkFactor="0.75"/>
    </person>
    <person id="ped57" depart="5.70" type="walker.pedestrian.0030">
        <personTrip from="-19" to="-38" walkFactor="0.75"/>
    </person>
    <person id="ped58" depart="5.80" type="walker.pedestrian.0036">
        <personTrip from="-10" to="-26" walkFactor="0.75"/>
    </person>
    <person id="ped59" depart="5.90" type="walker.pedestrian.0040">
        <personTrip from="-20" to="11" walkFactor="0.75"/>
    </person>
    <person id="ped60" depart="6.00" type="walker.pedestrian.0001">
        <personTrip from="-13" to="24" walkFactor="0.75"/>
    </person>
    <person id="ped61" depart="6.10" type="walker.pedestrian.0002">
        <personTrip from="-27" to="-5" walkFactor="0.75"/>
    </person>
    <person id="ped62" depart="6.20" type="walker.pedestrian.0007">
        <personTrip from="-29" to="10" walkFactor="0.75"/>
    </person>
    <person id="ped63" depart="6.30" type="walker.pedestrian.0010">
        <personTrip from="-11" to="-19" walkFactor="0.75"/>
    </person>
    <person id="ped64" depart="6.40" type="walker.pedestrian.0015">
        <personTrip from="-45" to="19" walkFactor="0.75"/>
    </person>
    <person id="ped65" depart="6.50" type="walker.pedestrian.0021">
        <personTrip from="-14" to="9" walkFactor="0.75"/>
    </person>
    <person id="ped66" depart="6.60" type="walker.pedestrian.0029">
        <personTrip from="28" to="-11" walkFactor="0.75"/>
    </person>
    <person id="ped67" depart="6.70" type="walker.pedestrian.0030">
        <personTrip from="44" to="31" walkFactor="0.75"/>
    </person>
    <person id="ped68" depart="6.80" type="walker.pedestrian.0036">
        <personTrip from="-13" to="20" walkFactor="0.75"/>
    </person>
    <person id="ped69" depart="6.90" type="walker.pedestrian.0040">
        <personTrip from="24" to="-6" walkFactor="0.75"/>
    </person>
    <person id="ped70" depart="7.00" type="walker.pedestrian.0001">
        <personTrip from="3" to="48" walkFactor="0.75"/>
    </person>
    <person id="ped71" depart="7.10" type="walker.pedestrian.0002">
        <personTrip from="-4" to="37" walkFactor="0.75"/>
    </person>
    <person id="ped72" depart="7.20" type="walker.pedestrian.0007">
        <personTrip from="28" to="3" walkFactor="0.75"/>
    </person>
    <person id="ped73" depart="7.30" type="walker.pedestrian.0010">
        <personTrip from="-43" to="-32" walkFactor="0.75"/>
    </person>
    <person id="ped74" depart="7.40" type="walker.pedestrian.0015">
        <personTrip from="-43" to="31" walkFactor="0.75"/>
    </person>
    <person id="ped75" depart="7.50" type="walker.pedestrian.0021">
        <personTrip from="-24" to="31" walkFactor="0.75"/>
    </person>
    <person id="ped76" depart="7.60" type="walker.pedestrian.0029">
        <personTrip from="-36" to="10" walkFactor="0.75"/>
    </person>
    <person id="ped77" depart="7.70" type="walker.pedestrian.0030">
        <personTrip from="-39" to="-45" walkFactor="0.75"/>
    </person>
    <person id="ped78" depart="7.80" type="walker.pedestrian.0036">
        <personTrip from="4" to="-27" walkFactor="0.75"/>
    </person>
    <person id="ped79" depart="7.90" type="walker.pedestrian.0040">
        <personTrip from="9" to="-16" walkFactor="0.75"/>
    </person>
    <person id="ped80" depart="8.00" type="walker.pedestrian.0001">
        <personTrip from="-46" to="-28" walkFactor="0.75"/>
    </person>
    <person id="ped81" depart="8.10" type="walker.pedestrian.0002">
        <personTrip from="28" to="11" walkFactor="0.75"/>
    </person>
    <person id="ped82" depart="8.20" type="walker.pedestrian.0007">
        <personTrip from="-36" to="3" walkFactor="0.75"/>
    </person>
    <person id="ped83" depart="8.30" type="walker.pedestrian.0010">
        <personTrip from="-11" to="-27" walkFactor="0.75"/>
    </person>
    <person id="ped84" depart="8.40" type="walker.pedestrian.0015">
        <personTrip from="-4" to="-38" walkFactor="0.75"/>
    </person>
    <person id="ped85" depart="8.50" type="walker.pedestrian.0021">
        <personTrip from="44" to="-20" walkFactor="0.75"/>
    </person>
    <person id="ped86" depart="8.60" type="walker.pedestrian.0029">
        <personTrip from="24" to="31" walkFactor="0.75"/>
    </person>
    <person id="ped87" depart="8.70" type="walker.pedestrian.0030">
        <personTrip from="13" to="-43" walkFactor="0.75"/>
    </person>
    <person id="ped88" depart="8.80" type="walker.pedestrian.0036">
        <personTrip from="42" to="-36" walkFactor="0.75"/>
    </person>
    <person id="ped89" depart="8.90" type="walker.pedestrian.0040">
        <personTrip from="-38" to="10" walkFactor="0.75"/>
    </person>
    <person id="ped90" depart="9.00" type="walker.pedestrian.0001">
        <personTrip from="31" to="-9" walkFactor="0.75"/>
    </person>
    <person id="ped91" depart="9.10" type="walker.pedestrian.0002">
        <personTrip from="-38" to="-14" walkFactor="0.75"/>
    </person>
    <person id="ped92" depart="9.20" type="walker.pedestrian.0007">
        <personTrip from="-3" to="48" walkFactor="0.75"/>
    </person>
    <person id="ped93" depart="9.30" type="walker.pedestrian.0010">
        <personTrip from="48" to="9" walkFactor="0.75"/>
    </person>
    <person id="ped94" depart="9.40" type="walker.pedestrian.0015">
        <personTrip from="-36" to="3" walkFactor="0.75"/>
    </person>
    <person id="ped95" depart="9.50" type="walker.pedestrian.0021">
        <personTrip from="-13" to="-38" walkFactor="0.75"/>
    </person>
    <person id="ped96" depart="9.60" type="walker.pedestrian.0029">
        <personTrip from="27" to="8" walkFactor="0.75"/>
    </person>
    <person id="ped97" depart="9.70" type="walker.pedestrian.0030">
        <personTrip from="42" to="13" walkFactor="0.75"/>
    </person>
    <person id="ped98" depart="9.80" type="walker.pedestrian.0036">
        <personTrip from="-43" to="48" walkFactor="0.75"/>
    </person>
    <person id="ped99" depart="9.90" type="walker.pedestrian.0040">
        <personTrip from="48" to="-46" walkFactor="0.75"/>
    </person>
</routes>
